Program Version,EnergyPlus, Version 26.1.0-6f2e40d102, YMD=2026.06.09 15:14
! This file shows details about the branches, nodes, and other
! elements of the flow connections.
! This file is intended for use in "debugging" potential problems
! that may also be detected by the program, but may be more easily
! identified by "eye".
! This file is also intended to support software which draws a
! schematic diagram of the HVAC system.
! ===============================================================
! #Nodes,<Number of Unique Nodes>
 #Nodes,2104
! <Node>,<NodeNumber>,<Node Name>,<Node Fluid Type>,<# Times Node Referenced After Definition>
 Node,1,G SW APARTMENT SUPPLY INLET,Air,3
 Node,2,G SW APARTMENT ERV SUP FAN OUTLET NODE,Air,3
 Node,3,G NW APARTMENT SUPPLY INLET,Air,3
 Node,4,G NW APARTMENT ERV SUP FAN OUTLET NODE,Air,3
 Node,5,OFFICE SUPPLY INLET,Air,3
 Node,6,G NE APARTMENT SUPPLY INLET,Air,3
 Node,7,G NE APARTMENT ERV SUP FAN OUTLET NODE,Air,3
 Node,8,G N1 APARTMENT SUPPLY INLET,Air,3
 Node,9,G N1 APARTMENT ERV SUP FAN OUTLET NODE,Air,3
 Node,10,G N2 APARTMENT SUPPLY INLET,Air,3
 Node,11,G N2 APARTMENT ERV SUP FAN OUTLET NODE,Air,3
 Node,12,G S1 APARTMENT SUPPLY INLET,Air,3
 Node,13,G S1 APARTMENT ERV SUP FAN OUTLET NODE,Air,3
 Node,14,G S2 APARTMENT SUPPLY INLET,Air,3
 Node,15,G S2 APARTMENT ERV SUP FAN OUTLET NODE,Air,3
 Node,16,F2 SW APARTMENT SUPPLY INLET,Air,3
 Node,17,F2 SW APARTMENT ERV SUP FAN OUTLET NODE,Air,3
 Node,18,F2 NW APARTMENT SUPPLY INLET,Air,3
 Node,19,F2 NW APARTMENT ERV SUP FAN OUTLET NODE,Air,3
 Node,20,F2 SE APARTMENT SUPPLY INLET,Air,3
 Node,21,F2 SE APARTMENT ERV SUP FAN OUTLET NODE,Air,3
 Node,22,F2 NE APARTMENT SUPPLY INLET,Air,3
 Node,23,F2 NE APARTMENT ERV SUP FAN OUTLET NODE,Air,3
 Node,24,F2 N1 APARTMENT SUPPLY INLET,Air,3
 Node,25,F2 N1 APARTMENT ERV SUP FAN OUTLET NODE,Air,3
 Node,26,F2 N2 APARTMENT SUPPLY INLET,Air,3
 Node,27,F2 N2 APARTMENT ERV SUP FAN OUTLET NODE,Air,3
 Node,28,F2 S1 APARTMENT SUPPLY INLET,Air,3
 Node,29,F2 S1 APARTMENT ERV SUP FAN OUTLET NODE,Air,3
 Node,30,F2 S2 APARTMENT SUPPLY INLET,Air,3
 Node,31,F2 S2 APARTMENT ERV SUP FAN OUTLET NODE,Air,3
 Node,32,F3 SW APARTMENT SUPPLY INLET,Air,3
 Node,33,F3 SW APARTMENT ERV SUP FAN OUTLET NODE,Air,3
 Node,34,F3 NW APARTMENT SUPPLY INLET,Air,3
 Node,35,F3 NW APARTMENT ERV SUP FAN OUTLET NODE,Air,3
 Node,36,F3 SE APARTMENT SUPPLY INLET,Air,3
 Node,37,F3 SE APARTMENT ERV SUP FAN OUTLET NODE,Air,3
 Node,38,F3 NE APARTMENT SUPPLY INLET,Air,3
 Node,39,F3 NE APARTMENT ERV SUP FAN OUTLET NODE,Air,3
 Node,40,F3 N1 APARTMENT SUPPLY INLET,Air,3
 Node,41,F3 N1 APARTMENT ERV SUP FAN OUTLET NODE,Air,3
 Node,42,F3 N2 APARTMENT SUPPLY INLET,Air,3
 Node,43,F3 N2 APARTMENT ERV SUP FAN OUTLET NODE,Air,3
 Node,44,F3 S1 APARTMENT SUPPLY INLET,Air,3
 Node,45,F3 S1 APARTMENT ERV SUP FAN OUTLET NODE,Air,3
 Node,46,F3 S2 APARTMENT SUPPLY INLET,Air,3
 Node,47,F3 S2 APARTMENT ERV SUP FAN OUTLET NODE,Air,3
 Node,48,F4 SW APARTMENT SUPPLY INLET,Air,3
 Node,49,F4 SW APARTMENT ERV SUP FAN OUTLET NODE,Air,3
 Node,50,F4 NW APARTMENT SUPPLY INLET,Air,3
 Node,51,F4 NW APARTMENT ERV SUP FAN OUTLET NODE,Air,3
 Node,52,F4 SE APARTMENT SUPPLY INLET,Air,3
 Node,53,F4 SE APARTMENT ERV SUP FAN OUTLET NODE,Air,3
 Node,54,F4 NE APARTMENT SUPPLY INLET,Air,3
 Node,55,F4 NE APARTMENT ERV SUP FAN OUTLET NODE,Air,3
 Node,56,F4 N1 APARTMENT SUPPLY INLET,Air,3
 Node,57,F4 N1 APARTMENT ERV SUP FAN OUTLET NODE,Air,3
 Node,58,F4 N2 APARTMENT SUPPLY INLET,Air,3
 Node,59,F4 N2 APARTMENT ERV SUP FAN OUTLET NODE,Air,3
 Node,60,F4 S1 APARTMENT SUPPLY INLET,Air,3
 Node,61,F4 S1 APARTMENT ERV SUP FAN OUTLET NODE,Air,3
 Node,62,F4 S2 APARTMENT SUPPLY INLET,Air,3
 Node,63,F4 S2 APARTMENT ERV SUP FAN OUTLET NODE,Air,3
 Node,64,M SW APARTMENT SUPPLY INLET,Air,3
 Node,65,M SW APARTMENT ERV SUP FAN OUTLET NODE,Air,3
 Node,66,M NW APARTMENT SUPPLY INLET,Air,3
 Node,67,M NW APARTMENT ERV SUP FAN OUTLET NODE,Air,3
 Node,68,M SE APARTMENT SUPPLY INLET,Air,3
 Node,69,M SE APARTMENT ERV SUP FAN OUTLET NODE,Air,3
 Node,70,M NE APARTMENT SUPPLY INLET,Air,3
 Node,71,M NE APARTMENT ERV SUP FAN OUTLET NODE,Air,3
 Node,72,M N1 APARTMENT SUPPLY INLET,Air,3
 Node,73,M N1 APARTMENT ERV SUP FAN OUTLET NODE,Air,3
 Node,74,M N2 APARTMENT SUPPLY INLET,Air,3
 Node,75,M N2 APARTMENT ERV SUP FAN OUTLET NODE,Air,3
 Node,76,M S1 APARTMENT SUPPLY INLET,Air,3
 Node,77,M S1 APARTMENT ERV SUP FAN OUTLET NODE,Air,3
 Node,78,M S2 APARTMENT SUPPLY INLET,Air,3
 Node,79,M S2 APARTMENT ERV SUP FAN OUTLET NODE,Air,3
 Node,80,F6 SW APARTMENT SUPPLY INLET,Air,3
 Node,81,F6 SW APARTMENT ERV SUP FAN OUTLET NODE,Air,3
 Node,82,F6 NW APARTMENT SUPPLY INLET,Air,3
 Node,83,F6 NW APARTMENT ERV SUP FAN OUTLET NODE,Air,3
 Node,84,F6 SE APARTMENT SUPPLY INLET,Air,3
 Node,85,F6 SE APARTMENT ERV SUP FAN OUTLET NODE,Air,3
 Node,86,F6 NE APARTMENT SUPPLY INLET,Air,3
 Node,87,F6 NE APARTMENT ERV SUP FAN OUTLET NODE,Air,3
 Node,88,F6 N1 APARTMENT SUPPLY INLET,Air,3
 Node,89,F6 N1 APARTMENT ERV SUP FAN OUTLET NODE,Air,3
 Node,90,F6 N2 APARTMENT SUPPLY INLET,Air,3
 Node,91,F6 N2 APARTMENT ERV SUP FAN OUTLET NODE,Air,3
 Node,92,F6 S1 APARTMENT SUPPLY INLET,Air,3
 Node,93,F6 S1 APARTMENT ERV SUP FAN OUTLET NODE,Air,3
 Node,94,F6 S2 APARTMENT SUPPLY INLET,Air,3
 Node,95,F6 S2 APARTMENT ERV SUP FAN OUTLET NODE,Air,3
 Node,96,F7 SW APARTMENT SUPPLY INLET,Air,3
 Node,97,F7 SW APARTMENT ERV SUP FAN OUTLET NODE,Air,3
 Node,98,F7 NW APARTMENT SUPPLY INLET,Air,3
 Node,99,F7 NW APARTMENT ERV SUP FAN OUTLET NODE,Air,3
 Node,100,F7 SE APARTMENT SUPPLY INLET,Air,3
 Node,101,F7 SE APARTMENT ERV SUP FAN OUTLET NODE,Air,3
 Node,102,F7 NE APARTMENT SUPPLY INLET,Air,3
 Node,103,F7 NE APARTMENT ERV SUP FAN OUTLET NODE,Air,3
 Node,104,F7 N1 APARTMENT SUPPLY INLET,Air,3
 Node,105,F7 N1 APARTMENT ERV SUP FAN OUTLET NODE,Air,3
 Node,106,F7 N2 APARTMENT SUPPLY INLET,Air,3
 Node,107,F7 N2 APARTMENT ERV SUP FAN OUTLET NODE,Air,3
 Node,108,F7 S1 APARTMENT SUPPLY INLET,Air,3
 Node,109,F7 S1 APARTMENT ERV SUP FAN OUTLET NODE,Air,3
 Node,110,F7 S2 APARTMENT SUPPLY INLET,Air,3
 Node,111,F7 S2 APARTMENT ERV SUP FAN OUTLET NODE,Air,3
 Node,112,F8 SW APARTMENT SUPPLY INLET,Air,3
 Node,113,F8 SW APARTMENT ERV SUP FAN OUTLET NODE,Air,3
 Node,114,F8 NW APARTMENT SUPPLY INLET,Air,3
 Node,115,F8 NW APARTMENT ERV SUP FAN OUTLET NODE,Air,3
 Node,116,F8 SE APARTMENT SUPPLY INLET,Air,3
 Node,117,F8 SE APARTMENT ERV SUP FAN OUTLET NODE,Air,3
 Node,118,F8 NE APARTMENT SUPPLY INLET,Air,3
 Node,119,F8 NE APARTMENT ERV SUP FAN OUTLET NODE,Air,3
 Node,120,F8 N1 APARTMENT SUPPLY INLET,Air,3
 Node,121,F8 N1 APARTMENT ERV SUP FAN OUTLET NODE,Air,3
 Node,122,F8 N2 APARTMENT SUPPLY INLET,Air,3
 Node,123,F8 N2 APARTMENT ERV SUP FAN OUTLET NODE,Air,3
 Node,124,F8 S1 APARTMENT SUPPLY INLET,Air,3
 Node,125,F8 S1 APARTMENT ERV SUP FAN OUTLET NODE,Air,3
 Node,126,F8 S2 APARTMENT SUPPLY INLET,Air,3
 Node,127,F8 S2 APARTMENT ERV SUP FAN OUTLET NODE,Air,3
 Node,128,F9 SW APARTMENT SUPPLY INLET,Air,3
 Node,129,F9 SW APARTMENT ERV SUP FAN OUTLET NODE,Air,3
 Node,130,F9 NW APARTMENT SUPPLY INLET,Air,3
 Node,131,F9 NW APARTMENT ERV SUP FAN OUTLET NODE,Air,3
 Node,132,F9 SE APARTMENT SUPPLY INLET,Air,3
 Node,133,F9 SE APARTMENT ERV SUP FAN OUTLET NODE,Air,3
 Node,134,F9 NE APARTMENT SUPPLY INLET,Air,3
 Node,135,F9 NE APARTMENT ERV SUP FAN OUTLET NODE,Air,3
 Node,136,F9 N1 APARTMENT SUPPLY INLET,Air,3
 Node,137,F9 N1 APARTMENT ERV SUP FAN OUTLET NODE,Air,3
 Node,138,F9 N2 APARTMENT SUPPLY INLET,Air,3
 Node,139,F9 N2 APARTMENT ERV SUP FAN OUTLET NODE,Air,3
 Node,140,F9 S1 APARTMENT SUPPLY INLET,Air,3
 Node,141,F9 S1 APARTMENT ERV SUP FAN OUTLET NODE,Air,3
 Node,142,F9 S2 APARTMENT SUPPLY INLET,Air,3
 Node,143,F9 S2 APARTMENT ERV SUP FAN OUTLET NODE,Air,3
 Node,144,T SW APARTMENT SUPPLY INLET,Air,3
 Node,145,T SW APARTMENT ERV SUP FAN OUTLET NODE,Air,3
 Node,146,T NW APARTMENT SUPPLY INLET,Air,3
 Node,147,T NW APARTMENT ERV SUP FAN OUTLET NODE,Air,3
 Node,148,T SE APARTMENT SUPPLY INLET,Air,3
 Node,149,T SE APARTMENT ERV SUP FAN OUTLET NODE,Air,3
 Node,150,T NE APARTMENT SUPPLY INLET,Air,3
 Node,151,T NE APARTMENT ERV SUP FAN OUTLET NODE,Air,3
 Node,152,T N1 APARTMENT SUPPLY INLET,Air,3
 Node,153,T N1 APARTMENT ERV SUP FAN OUTLET NODE,Air,3
 Node,154,T N2 APARTMENT SUPPLY INLET,Air,3
 Node,155,T N2 APARTMENT ERV SUP FAN OUTLET NODE,Air,3
 Node,156,T S1 APARTMENT SUPPLY INLET,Air,3
 Node,157,T S1 APARTMENT ERV SUP FAN OUTLET NODE,Air,3
 Node,158,T S2 APARTMENT SUPPLY INLET,Air,3
 Node,159,T S2 APARTMENT ERV SUP FAN OUTLET NODE,Air,3
 Node,160,SHWSYS1 SUPPLY INLET NODE,Water,2
 Node,161,SHWSYS1 PUMP-SHWSYS1 WATER HEATERNODEVIACONNECTOR,Water,1
 Node,162,SHWSYS1 PUMP-SHWSYS1 WATER HEATERNODE,Water,1
 Node,163,SHWSYS1 SUPPLY EQUIPMENT OUTLET NODE,Water,1
 Node,164,SHWSYS1 SUPPLY EQUIP BYPASS INLET NODE,Water,1
 Node,165,SHWSYS1 SUPPLY EQUIP BYPASS OUTLET NODE,Water,1
 Node,166,SHWSYS1 SUPPLY MIXER-SHWSYS1 SUPPLY OUTLET PIPE,Water,1
 Node,167,SHWSYS1 SUPPLY OUTLET NODE,Water,4
 Node,168,SHWSYS1 DEMAND INLET NODE,Water,2
 Node,169,SHWSYS1 DEMAND INLET PIPE-SHWSYS1 DEMAND MIXER,Water,1
 Node,170,G SW APARTMENT SUB CAT WATER INLET NODE,Water,1
 Node,171,G SW APARTMENT SUB CAT WATER OUTLET NODE,Water,1
 Node,172,G NW APARTMENT SUB CAT WATER INLET NODE,Water,1
 Node,173,G NW APARTMENT SUB CAT WATER OUTLET NODE,Water,1
 Node,174,G NE APARTMENT SUB CAT WATER INLET NODE,Water,1
 Node,175,G NE APARTMENT SUB CAT WATER OUTLET NODE,Water,1
 Node,176,G N1 APARTMENT SUB CAT WATER INLET NODE,Water,1
 Node,177,G N1 APARTMENT SUB CAT WATER OUTLET NODE,Water,1
 Node,178,G N2 APARTMENT SUB CAT WATER INLET NODE,Water,1
 Node,179,G N2 APARTMENT SUB CAT WATER OUTLET NODE,Water,1
 Node,180,G S1 APARTMENT SUB CAT WATER INLET NODE,Water,1
 Node,181,G S1 APARTMENT SUB CAT WATER OUTLET NODE,Water,1
 Node,182,G S2 APARTMENT SUB CAT WATER INLET NODE,Water,1
 Node,183,G S2 APARTMENT SUB CAT WATER OUTLET NODE,Water,1
 Node,184,F2 SW APARTMENT SUB CAT WATER INLET NODE,Water,1
 Node,185,F2 SW APARTMENT SUB CAT WATER OUTLET NODE,Water,1
 Node,186,F2 NW APARTMENT SUB CAT WATER INLET NODE,Water,1
 Node,187,F2 NW APARTMENT SUB CAT WATER OUTLET NODE,Water,1
 Node,188,F2 SE APARTMENT SUB CAT WATER INLET NODE,Water,1
 Node,189,F2 SE APARTMENT SUB CAT WATER OUTLET NODE,Water,1
 Node,190,F2 NE APARTMENT SUB CAT WATER INLET NODE,Water,1
 Node,191,F2 NE APARTMENT SUB CAT WATER OUTLET NODE,Water,1
 Node,192,F2 N1 APARTMENT SUB CAT WATER INLET NODE,Water,1
 Node,193,F2 N1 APARTMENT SUB CAT WATER OUTLET NODE,Water,1
 Node,194,F2 N2 APARTMENT SUB CAT WATER INLET NODE,Water,1
 Node,195,F2 N2 APARTMENT SUB CAT WATER OUTLET NODE,Water,1
 Node,196,F2 S1 APARTMENT SUB CAT WATER INLET NODE,Water,1
 Node,197,F2 S1 APARTMENT SUB CAT WATER OUTLET NODE,Water,1
 Node,198,F2 S2 APARTMENT SUB CAT WATER INLET NODE,Water,1
 Node,199,F2 S2 APARTMENT SUB CAT WATER OUTLET NODE,Water,1
 Node,200,F3 SW APARTMENT SUB CAT WATER INLET NODE,Water,1
 Node,201,F3 SW APARTMENT SUB CAT WATER OUTLET NODE,Water,1
 Node,202,F3 NW APARTMENT SUB CAT WATER INLET NODE,Water,1
 Node,203,F3 NW APARTMENT SUB CAT WATER OUTLET NODE,Water,1
 Node,204,F3 SE APARTMENT SUB CAT WATER INLET NODE,Water,1
 Node,205,F3 SE APARTMENT SUB CAT WATER OUTLET NODE,Water,1
 Node,206,F3 NE APARTMENT SUB CAT WATER INLET NODE,Water,1
 Node,207,F3 NE APARTMENT SUB CAT WATER OUTLET NODE,Water,1
 Node,208,F3 N1 APARTMENT SUB CAT WATER INLET NODE,Water,1
 Node,209,F3 N1 APARTMENT SUB CAT WATER OUTLET NODE,Water,1
 Node,210,F3 N2 APARTMENT SUB CAT WATER INLET NODE,Water,1
 Node,211,F3 N2 APARTMENT SUB CAT WATER OUTLET NODE,Water,1
 Node,212,F3 S1 APARTMENT SUB CAT WATER INLET NODE,Water,1
 Node,213,F3 S1 APARTMENT SUB CAT WATER OUTLET NODE,Water,1
 Node,214,F3 S2 APARTMENT SUB CAT WATER INLET NODE,Water,1
 Node,215,F3 S2 APARTMENT SUB CAT WATER OUTLET NODE,Water,1
 Node,216,F4 SW APARTMENT SUB CAT WATER INLET NODE,Water,1
 Node,217,F4 SW APARTMENT SUB CAT WATER OUTLET NODE,Water,1
 Node,218,F4 NW APARTMENT SUB CAT WATER INLET NODE,Water,1
 Node,219,F4 NW APARTMENT SUB CAT WATER OUTLET NODE,Water,1
 Node,220,F4 SE APARTMENT SUB CAT WATER INLET NODE,Water,1
 Node,221,F4 SE APARTMENT SUB CAT WATER OUTLET NODE,Water,1
 Node,222,F4 NE APARTMENT SUB CAT WATER INLET NODE,Water,1
 Node,223,F4 NE APARTMENT SUB CAT WATER OUTLET NODE,Water,1
 Node,224,F4 N1 APARTMENT SUB CAT WATER INLET NODE,Water,1
 Node,225,F4 N1 APARTMENT SUB CAT WATER OUTLET NODE,Water,1
 Node,226,F4 N2 APARTMENT SUB CAT WATER INLET NODE,Water,1
 Node,227,F4 N2 APARTMENT SUB CAT WATER OUTLET NODE,Water,1
 Node,228,F4 S1 APARTMENT SUB CAT WATER INLET NODE,Water,1
 Node,229,F4 S1 APARTMENT SUB CAT WATER OUTLET NODE,Water,1
 Node,230,F4 S2 APARTMENT SUB CAT WATER INLET NODE,Water,1
 Node,231,F4 S2 APARTMENT SUB CAT WATER OUTLET NODE,Water,1
 Node,232,M SW APARTMENT SUB CAT WATER INLET NODE,Water,1
 Node,233,M SW APARTMENT SUB CAT WATER OUTLET NODE,Water,1
 Node,234,M NW APARTMENT SUB CAT WATER INLET NODE,Water,1
 Node,235,M NW APARTMENT SUB CAT WATER OUTLET NODE,Water,1
 Node,236,M SE APARTMENT SUB CAT WATER INLET NODE,Water,1
 Node,237,M SE APARTMENT SUB CAT WATER OUTLET NODE,Water,1
 Node,238,M NE APARTMENT SUB CAT WATER INLET NODE,Water,1
 Node,239,M NE APARTMENT SUB CAT WATER OUTLET NODE,Water,1
 Node,240,M N1 APARTMENT SUB CAT WATER INLET NODE,Water,1
 Node,241,M N1 APARTMENT SUB CAT WATER OUTLET NODE,Water,1
 Node,242,M N2 APARTMENT SUB CAT WATER INLET NODE,Water,1
 Node,243,M N2 APARTMENT SUB CAT WATER OUTLET NODE,Water,1
 Node,244,M S1 APARTMENT SUB CAT WATER INLET NODE,Water,1
 Node,245,M S1 APARTMENT SUB CAT WATER OUTLET NODE,Water,1
 Node,246,M S2 APARTMENT SUB CAT WATER INLET NODE,Water,1
 Node,247,M S2 APARTMENT SUB CAT WATER OUTLET NODE,Water,1
 Node,248,F6 SW APARTMENT SUB CAT WATER INLET NODE,Water,1
 Node,249,F6 SW APARTMENT SUB CAT WATER OUTLET NODE,Water,1
 Node,250,F6 NW APARTMENT SUB CAT WATER INLET NODE,Water,1
 Node,251,F6 NW APARTMENT SUB CAT WATER OUTLET NODE,Water,1
 Node,252,F6 SE APARTMENT SUB CAT WATER INLET NODE,Water,1
 Node,253,F6 SE APARTMENT SUB CAT WATER OUTLET NODE,Water,1
 Node,254,F6 NE APARTMENT SUB CAT WATER INLET NODE,Water,1
 Node,255,F6 NE APARTMENT SUB CAT WATER OUTLET NODE,Water,1
 Node,256,F6 N1 APARTMENT SUB CAT WATER INLET NODE,Water,1
 Node,257,F6 N1 APARTMENT SUB CAT WATER OUTLET NODE,Water,1
 Node,258,F6 N2 APARTMENT SUB CAT WATER INLET NODE,Water,1
 Node,259,F6 N2 APARTMENT SUB CAT WATER OUTLET NODE,Water,1
 Node,260,F6 S1 APARTMENT SUB CAT WATER INLET NODE,Water,1
 Node,261,F6 S1 APARTMENT SUB CAT WATER OUTLET NODE,Water,1
 Node,262,F6 S2 APARTMENT SUB CAT WATER INLET NODE,Water,1
 Node,263,F6 S2 APARTMENT SUB CAT WATER OUTLET NODE,Water,1
 Node,264,F7 SW APARTMENT SUB CAT WATER INLET NODE,Water,1
 Node,265,F7 SW APARTMENT SUB CAT WATER OUTLET NODE,Water,1
 Node,266,F7 NW APARTMENT SUB CAT WATER INLET NODE,Water,1
 Node,267,F7 NW APARTMENT SUB CAT WATER OUTLET NODE,Water,1
 Node,268,F7 SE APARTMENT SUB CAT WATER INLET NODE,Water,1
 Node,269,F7 SE APARTMENT SUB CAT WATER OUTLET NODE,Water,1
 Node,270,F7 NE APARTMENT SUB CAT WATER INLET NODE,Water,1
 Node,271,F7 NE APARTMENT SUB CAT WATER OUTLET NODE,Water,1
 Node,272,F7 N1 APARTMENT SUB CAT WATER INLET NODE,Water,1
 Node,273,F7 N1 APARTMENT SUB CAT WATER OUTLET NODE,Water,1
 Node,274,F7 N2 APARTMENT SUB CAT WATER INLET NODE,Water,1
 Node,275,F7 N2 APARTMENT SUB CAT WATER OUTLET NODE,Water,1
 Node,276,F7 S1 APARTMENT SUB CAT WATER INLET NODE,Water,1
 Node,277,F7 S1 APARTMENT SUB CAT WATER OUTLET NODE,Water,1
 Node,278,F7 S2 APARTMENT SUB CAT WATER INLET NODE,Water,1
 Node,279,F7 S2 APARTMENT SUB CAT WATER OUTLET NODE,Water,1
 Node,280,F8 SW APARTMENT SUB CAT WATER INLET NODE,Water,1
 Node,281,F8 SW APARTMENT SUB CAT WATER OUTLET NODE,Water,1
 Node,282,F8 NW APARTMENT SUB CAT WATER INLET NODE,Water,1
 Node,283,F8 NW APARTMENT SUB CAT WATER OUTLET NODE,Water,1
 Node,284,F8 SE APARTMENT SUB CAT WATER INLET NODE,Water,1
 Node,285,F8 SE APARTMENT SUB CAT WATER OUTLET NODE,Water,1
 Node,286,F8 NE APARTMENT SUB CAT WATER INLET NODE,Water,1
 Node,287,F8 NE APARTMENT SUB CAT WATER OUTLET NODE,Water,1
 Node,288,F8 N1 APARTMENT SUB CAT WATER INLET NODE,Water,1
 Node,289,F8 N1 APARTMENT SUB CAT WATER OUTLET NODE,Water,1
 Node,290,F8 N2 APARTMENT SUB CAT WATER INLET NODE,Water,1
 Node,291,F8 N2 APARTMENT SUB CAT WATER OUTLET NODE,Water,1
 Node,292,F8 S1 APARTMENT SUB CAT WATER INLET NODE,Water,1
 Node,293,F8 S1 APARTMENT SUB CAT WATER OUTLET NODE,Water,1
 Node,294,F8 S2 APARTMENT SUB CAT WATER INLET NODE,Water,1
 Node,295,F8 S2 APARTMENT SUB CAT WATER OUTLET NODE,Water,1
 Node,296,F9 SW APARTMENT SUB CAT WATER INLET NODE,Water,1
 Node,297,F9 SW APARTMENT SUB CAT WATER OUTLET NODE,Water,1
 Node,298,F9 NW APARTMENT SUB CAT WATER INLET NODE,Water,1
 Node,299,F9 NW APARTMENT SUB CAT WATER OUTLET NODE,Water,1
 Node,300,F9 SE APARTMENT SUB CAT WATER INLET NODE,Water,1
 Node,301,F9 SE APARTMENT SUB CAT WATER OUTLET NODE,Water,1
 Node,302,F9 NE APARTMENT SUB CAT WATER INLET NODE,Water,1
 Node,303,F9 NE APARTMENT SUB CAT WATER OUTLET NODE,Water,1
 Node,304,F9 N1 APARTMENT SUB CAT WATER INLET NODE,Water,1
 Node,305,F9 N1 APARTMENT SUB CAT WATER OUTLET NODE,Water,1
 Node,306,F9 N2 APARTMENT SUB CAT WATER INLET NODE,Water,1
 Node,307,F9 N2 APARTMENT SUB CAT WATER OUTLET NODE,Water,1
 Node,308,F9 S1 APARTMENT SUB CAT WATER INLET NODE,Water,1
 Node,309,F9 S1 APARTMENT SUB CAT WATER OUTLET NODE,Water,1
 Node,310,F9 S2 APARTMENT SUB CAT WATER INLET NODE,Water,1
 Node,311,F9 S2 APARTMENT SUB CAT WATER OUTLET NODE,Water,1
 Node,312,T SW APARTMENT SUB CAT WATER INLET NODE,Water,1
 Node,313,T SW APARTMENT SUB CAT WATER OUTLET NODE,Water,1
 Node,314,T NW APARTMENT SUB CAT WATER INLET NODE,Water,1
 Node,315,T NW APARTMENT SUB CAT WATER OUTLET NODE,Water,1
 Node,316,T SE APARTMENT SUB CAT WATER INLET NODE,Water,1
 Node,317,T SE APARTMENT SUB CAT WATER OUTLET NODE,Water,1
 Node,318,T NE APARTMENT SUB CAT WATER INLET NODE,Water,1
 Node,319,T NE APARTMENT SUB CAT WATER OUTLET NODE,Water,1
 Node,320,T N1 APARTMENT SUB CAT WATER INLET NODE,Water,1
 Node,321,T N1 APARTMENT SUB CAT WATER OUTLET NODE,Water,1
 Node,322,T N2 APARTMENT SUB CAT WATER INLET NODE,Water,1
 Node,323,T N2 APARTMENT SUB CAT WATER OUTLET NODE,Water,1
 Node,324,T S1 APARTMENT SUB CAT WATER INLET NODE,Water,1
 Node,325,T S1 APARTMENT SUB CAT WATER OUTLET NODE,Water,1
 Node,326,T S2 APARTMENT SUB CAT WATER INLET NODE,Water,1
 Node,327,T S2 APARTMENT SUB CAT WATER OUTLET NODE,Water,1
 Node,328,SHWSYS1 DEMAND BYPASS PIPE INLET NODE,Water,1
 Node,329,SHWSYS1 DEMAND BYPASS PIPE OUTLET NODE,Water,1
 Node,330,SHWSYS1 DEMAND MIXER-SHWSYS1 DEMAND OUTLET PIPE,Water,1
 Node,331,SHWSYS1 DEMAND OUTLET NODE,Water,2
 Node,332,PLANT SUPPLY INLET NODE,Water,2
 Node,333,PLANT PUMP OUTLET NODE,Water,1
 Node,334,CENTRAL TOWER INLET NODE,Water,1
 Node,335,CENTRAL TOWER OUTLET NODE,Water,2
 Node,336,CENTRAL BOILER INLET NODE,Water,1
 Node,337,CENTRAL BOILER OUTLET NODE,Water,2
 Node,338,PLANT SUPPLY BYPASS INLET NODE,Water,1
 Node,339,PLANT SUPPLY BYPASS OUTLET NODE,Water,1
 Node,340,PLANT SUPPLY EXIT PIPE INLET NODE,Water,1
 Node,341,PLANT SUPPLY OUTLET NODE,Water,4
 Node,342,PLANT DEMAND INLET NODE,Water,2
 Node,343,PLANT DEMAND ENTRANCE PIPE OUTLET NODE,Water,1
 Node,344,COND DEMAND BYPASS INLET NODE,Water,1
 Node,345,COND DEMAND BYPASS OUTLET NODE,Water,1
 Node,346,PLANT DEMAND EXIT PIPE INLET NODE,Water,1
 Node,347,PLANT DEMAND OUTLET NODE,Water,2
 Node,348,AIRLOOP G SW RETURN AIR INLET,Air,3
 Node,349,G SW APARTMENT MIXED AIR OUTLET,Air,5
 Node,350,AIRLOOP G SW SUPPLY AIR OUTLET,Air,3
 Node,351,AIRLOOP G NW RETURN AIR INLET,Air,3
 Node,352,G NW APARTMENT MIXED AIR OUTLET,Air,5
 Node,353,AIRLOOP G NW SUPPLY AIR OUTLET,Air,3
 Node,354,AIRLOOP OFFICE RETURN AIR INLET,Air,3
 Node,355,OFFICE MIXED AIR OUTLET,Air,5
 Node,356,AIRLOOP OFFICE SUPPLY AIR OUTLET,Air,3
 Node,357,AIRLOOP G NE RETURN AIR INLET,Air,3
 Node,358,G NE APARTMENT MIXED AIR OUTLET,Air,5
 Node,359,AIRLOOP G NE SUPPLY AIR OUTLET,Air,3
 Node,360,AIRLOOP G N1 RETURN AIR INLET,Air,3
 Node,361,G N1 APARTMENT MIXED AIR OUTLET,Air,5
 Node,362,AIRLOOP G N1 SUPPLY AIR OUTLET,Air,3
 Node,363,AIRLOOP G N2 RETURN AIR INLET,Air,3
 Node,364,G N2 APARTMENT MIXED AIR OUTLET,Air,5
 Node,365,AIRLOOP G N2 SUPPLY AIR OUTLET,Air,3
 Node,366,AIRLOOP G S1 RETURN AIR INLET,Air,3
 Node,367,G S1 APARTMENT MIXED AIR OUTLET,Air,5
 Node,368,AIRLOOP G S1 SUPPLY AIR OUTLET,Air,3
 Node,369,AIRLOOP G S2 RETURN AIR INLET,Air,3
 Node,370,G S2 APARTMENT MIXED AIR OUTLET,Air,5
 Node,371,AIRLOOP G S2 SUPPLY AIR OUTLET,Air,3
 Node,372,AIRLOOP F2 SW RETURN AIR INLET,Air,3
 Node,373,F2 SW APARTMENT MIXED AIR OUTLET,Air,5
 Node,374,AIRLOOP F2 SW SUPPLY AIR OUTLET,Air,3
 Node,375,AIRLOOP F2 NW RETURN AIR INLET,Air,3
 Node,376,F2 NW APARTMENT MIXED AIR OUTLET,Air,5
 Node,377,AIRLOOP F2 NW SUPPLY AIR OUTLET,Air,3
 Node,378,AIRLOOP F2 SE RETURN AIR INLET,Air,3
 Node,379,F2 SE APARTMENT MIXED AIR OUTLET,Air,5
 Node,380,AIRLOOP F2 SE SUPPLY AIR OUTLET,Air,3
 Node,381,AIRLOOP F2 NE RETURN AIR INLET,Air,3
 Node,382,F2 NE APARTMENT MIXED AIR OUTLET,Air,5
 Node,383,AIRLOOP F2 NE SUPPLY AIR OUTLET,Air,3
 Node,384,AIRLOOP F2 N1 RETURN AIR INLET,Air,3
 Node,385,F2 N1 APARTMENT MIXED AIR OUTLET,Air,5
 Node,386,AIRLOOP F2 N1 SUPPLY AIR OUTLET,Air,3
 Node,387,AIRLOOP F2 N2 RETURN AIR INLET,Air,3
 Node,388,F2 N2 APARTMENT MIXED AIR OUTLET,Air,5
 Node,389,AIRLOOP F2 N2 SUPPLY AIR OUTLET,Air,3
 Node,390,AIRLOOP F2 S1 RETURN AIR INLET,Air,3
 Node,391,F2 S1 APARTMENT MIXED AIR OUTLET,Air,5
 Node,392,AIRLOOP F2 S1 SUPPLY AIR OUTLET,Air,3
 Node,393,AIRLOOP F2 S2 RETURN AIR INLET,Air,3
 Node,394,F2 S2 APARTMENT MIXED AIR OUTLET,Air,5
 Node,395,AIRLOOP F2 S2 SUPPLY AIR OUTLET,Air,3
 Node,396,AIRLOOP F3 SW RETURN AIR INLET,Air,3
 Node,397,F3 SW APARTMENT MIXED AIR OUTLET,Air,5
 Node,398,AIRLOOP F3 SW SUPPLY AIR OUTLET,Air,3
 Node,399,AIRLOOP F3 NW RETURN AIR INLET,Air,3
 Node,400,F3 NW APARTMENT MIXED AIR OUTLET,Air,5
 Node,401,AIRLOOP F3 NW SUPPLY AIR OUTLET,Air,3
 Node,402,AIRLOOP F3 SE RETURN AIR INLET,Air,3
 Node,403,F3 SE APARTMENT MIXED AIR OUTLET,Air,5
 Node,404,AIRLOOP F3 SE SUPPLY AIR OUTLET,Air,3
 Node,405,AIRLOOP F3 NE RETURN AIR INLET,Air,3
 Node,406,F3 NE APARTMENT MIXED AIR OUTLET,Air,5
 Node,407,AIRLOOP F3 NE SUPPLY AIR OUTLET,Air,3
 Node,408,AIRLOOP F3 N1 RETURN AIR INLET,Air,3
 Node,409,F3 N1 APARTMENT MIXED AIR OUTLET,Air,5
 Node,410,AIRLOOP F3 N1 SUPPLY AIR OUTLET,Air,3
 Node,411,AIRLOOP F3 N2 RETURN AIR INLET,Air,3
 Node,412,F3 N2 APARTMENT MIXED AIR OUTLET,Air,5
 Node,413,AIRLOOP F3 N2 SUPPLY AIR OUTLET,Air,3
 Node,414,AIRLOOP F3 S1 RETURN AIR INLET,Air,3
 Node,415,F3 S1 APARTMENT MIXED AIR OUTLET,Air,5
 Node,416,AIRLOOP F3 S1 SUPPLY AIR OUTLET,Air,3
 Node,417,AIRLOOP F3 S2 RETURN AIR INLET,Air,3
 Node,418,F3 S2 APARTMENT MIXED AIR OUTLET,Air,5
 Node,419,AIRLOOP F3 S2 SUPPLY AIR OUTLET,Air,3
 Node,420,AIRLOOP F4 SW RETURN AIR INLET,Air,3
 Node,421,F4 SW APARTMENT MIXED AIR OUTLET,Air,5
 Node,422,AIRLOOP F4 SW SUPPLY AIR OUTLET,Air,3
 Node,423,AIRLOOP F4 NW RETURN AIR INLET,Air,3
 Node,424,F4 NW APARTMENT MIXED AIR OUTLET,Air,5
 Node,425,AIRLOOP F4 NW SUPPLY AIR OUTLET,Air,3
 Node,426,AIRLOOP F4 SE RETURN AIR INLET,Air,3
 Node,427,F4 SE APARTMENT MIXED AIR OUTLET,Air,5
 Node,428,AIRLOOP F4 SE SUPPLY AIR OUTLET,Air,3
 Node,429,AIRLOOP F4 NE RETURN AIR INLET,Air,3
 Node,430,F4 NE APARTMENT MIXED AIR OUTLET,Air,5
 Node,431,AIRLOOP F4 NE SUPPLY AIR OUTLET,Air,3
 Node,432,AIRLOOP F4 N1 RETURN AIR INLET,Air,3
 Node,433,F4 N1 APARTMENT MIXED AIR OUTLET,Air,5
 Node,434,AIRLOOP F4 N1 SUPPLY AIR OUTLET,Air,3
 Node,435,AIRLOOP F4 N2 RETURN AIR INLET,Air,3
 Node,436,F4 N2 APARTMENT MIXED AIR OUTLET,Air,5
 Node,437,AIRLOOP F4 N2 SUPPLY AIR OUTLET,Air,3
 Node,438,AIRLOOP F4 S1 RETURN AIR INLET,Air,3
 Node,439,F4 S1 APARTMENT MIXED AIR OUTLET,Air,5
 Node,440,AIRLOOP F4 S1 SUPPLY AIR OUTLET,Air,3
 Node,441,AIRLOOP F4 S2 RETURN AIR INLET,Air,3
 Node,442,F4 S2 APARTMENT MIXED AIR OUTLET,Air,5
 Node,443,AIRLOOP F4 S2 SUPPLY AIR OUTLET,Air,3
 Node,444,AIRLOOP M SW RETURN AIR INLET,Air,3
 Node,445,M SW APARTMENT MIXED AIR OUTLET,Air,5
 Node,446,AIRLOOP M SW SUPPLY AIR OUTLET,Air,3
 Node,447,AIRLOOP M NW RETURN AIR INLET,Air,3
 Node,448,M NW APARTMENT MIXED AIR OUTLET,Air,5
 Node,449,AIRLOOP M NW SUPPLY AIR OUTLET,Air,3
 Node,450,AIRLOOP M SE RETURN AIR INLET,Air,3
 Node,451,M SE APARTMENT MIXED AIR OUTLET,Air,5
 Node,452,AIRLOOP M SE SUPPLY AIR OUTLET,Air,3
 Node,453,AIRLOOP M NE RETURN AIR INLET,Air,3
 Node,454,M NE APARTMENT MIXED AIR OUTLET,Air,5
 Node,455,AIRLOOP M NE SUPPLY AIR OUTLET,Air,3
 Node,456,AIRLOOP M N1 RETURN AIR INLET,Air,3
 Node,457,M N1 APARTMENT MIXED AIR OUTLET,Air,5
 Node,458,AIRLOOP M N1 SUPPLY AIR OUTLET,Air,3
 Node,459,AIRLOOP M N2 RETURN AIR INLET,Air,3
 Node,460,M N2 APARTMENT MIXED AIR OUTLET,Air,5
 Node,461,AIRLOOP M N2 SUPPLY AIR OUTLET,Air,3
 Node,462,AIRLOOP M S1 RETURN AIR INLET,Air,3
 Node,463,M S1 APARTMENT MIXED AIR OUTLET,Air,5
 Node,464,AIRLOOP M S1 SUPPLY AIR OUTLET,Air,3
 Node,465,AIRLOOP M S2 RETURN AIR INLET,Air,3
 Node,466,M S2 APARTMENT MIXED AIR OUTLET,Air,5
 Node,467,AIRLOOP M S2 SUPPLY AIR OUTLET,Air,3
 Node,468,AIRLOOP F6 SW RETURN AIR INLET,Air,3
 Node,469,F6 SW APARTMENT MIXED AIR OUTLET,Air,5
 Node,470,AIRLOOP F6 SW SUPPLY AIR OUTLET,Air,3
 Node,471,AIRLOOP F6 NW RETURN AIR INLET,Air,3
 Node,472,F6 NW APARTMENT MIXED AIR OUTLET,Air,5
 Node,473,AIRLOOP F6 NW SUPPLY AIR OUTLET,Air,3
 Node,474,AIRLOOP F6 SE RETURN AIR INLET,Air,3
 Node,475,F6 SE APARTMENT MIXED AIR OUTLET,Air,5
 Node,476,AIRLOOP F6 SE SUPPLY AIR OUTLET,Air,3
 Node,477,AIRLOOP F6 NE RETURN AIR INLET,Air,3
 Node,478,F6 NE APARTMENT MIXED AIR OUTLET,Air,5
 Node,479,AIRLOOP F6 NE SUPPLY AIR OUTLET,Air,3
 Node,480,AIRLOOP F6 N1 RETURN AIR INLET,Air,3
 Node,481,F6 N1 APARTMENT MIXED AIR OUTLET,Air,5
 Node,482,AIRLOOP F6 N1 SUPPLY AIR OUTLET,Air,3
 Node,483,AIRLOOP F6 N2 RETURN AIR INLET,Air,3
 Node,484,F6 N2 APARTMENT MIXED AIR OUTLET,Air,5
 Node,485,AIRLOOP F6 N2 SUPPLY AIR OUTLET,Air,3
 Node,486,AIRLOOP F6 S1 RETURN AIR INLET,Air,3
 Node,487,F6 S1 APARTMENT MIXED AIR OUTLET,Air,5
 Node,488,AIRLOOP F6 S1 SUPPLY AIR OUTLET,Air,3
 Node,489,AIRLOOP F6 S2 RETURN AIR INLET,Air,3
 Node,490,F6 S2 APARTMENT MIXED AIR OUTLET,Air,5
 Node,491,AIRLOOP F6 S2 SUPPLY AIR OUTLET,Air,3
 Node,492,AIRLOOP F7 SW RETURN AIR INLET,Air,3
 Node,493,F7 SW APARTMENT MIXED AIR OUTLET,Air,5
 Node,494,AIRLOOP F7 SW SUPPLY AIR OUTLET,Air,3
 Node,495,AIRLOOP F7 NW RETURN AIR INLET,Air,3
 Node,496,F7 NW APARTMENT MIXED AIR OUTLET,Air,5
 Node,497,AIRLOOP F7 NW SUPPLY AIR OUTLET,Air,3
 Node,498,AIRLOOP F7 SE RETURN AIR INLET,Air,3
 Node,499,F7 SE APARTMENT MIXED AIR OUTLET,Air,5
 Node,500,AIRLOOP F7 SE SUPPLY AIR OUTLET,Air,3
 Node,501,AIRLOOP F7 NE RETURN AIR INLET,Air,3
 Node,502,F7 NE APARTMENT MIXED AIR OUTLET,Air,5
 Node,503,AIRLOOP F7 NE SUPPLY AIR OUTLET,Air,3
 Node,504,AIRLOOP F7 N1 RETURN AIR INLET,Air,3
 Node,505,F7 N1 APARTMENT MIXED AIR OUTLET,Air,5
 Node,506,AIRLOOP F7 N1 SUPPLY AIR OUTLET,Air,3
 Node,507,AIRLOOP F7 N2 RETURN AIR INLET,Air,3
 Node,508,F7 N2 APARTMENT MIXED AIR OUTLET,Air,5
 Node,509,AIRLOOP F7 N2 SUPPLY AIR OUTLET,Air,3
 Node,510,AIRLOOP F7 S1 RETURN AIR INLET,Air,3
 Node,511,F7 S1 APARTMENT MIXED AIR OUTLET,Air,5
 Node,512,AIRLOOP F7 S1 SUPPLY AIR OUTLET,Air,3
 Node,513,AIRLOOP F7 S2 RETURN AIR INLET,Air,3
 Node,514,F7 S2 APARTMENT MIXED AIR OUTLET,Air,5
 Node,515,AIRLOOP F7 S2 SUPPLY AIR OUTLET,Air,3
 Node,516,AIRLOOP F8 SW RETURN AIR INLET,Air,3
 Node,517,F8 SW APARTMENT MIXED AIR OUTLET,Air,5
 Node,518,AIRLOOP F8 SW SUPPLY AIR OUTLET,Air,3
 Node,519,AIRLOOP F8 NW RETURN AIR INLET,Air,3
 Node,520,F8 NW APARTMENT MIXED AIR OUTLET,Air,5
 Node,521,AIRLOOP F8 NW SUPPLY AIR OUTLET,Air,3
 Node,522,AIRLOOP F8 SE RETURN AIR INLET,Air,3
 Node,523,F8 SE APARTMENT MIXED AIR OUTLET,Air,5
 Node,524,AIRLOOP F8 SE SUPPLY AIR OUTLET,Air,3
 Node,525,AIRLOOP F8 NE RETURN AIR INLET,Air,3
 Node,526,F8 NE APARTMENT MIXED AIR OUTLET,Air,5
 Node,527,AIRLOOP F8 NE SUPPLY AIR OUTLET,Air,3
 Node,528,AIRLOOP F8 N1 RETURN AIR INLET,Air,3
 Node,529,F8 N1 APARTMENT MIXED AIR OUTLET,Air,5
 Node,530,AIRLOOP F8 N1 SUPPLY AIR OUTLET,Air,3
 Node,531,AIRLOOP F8 N2 RETURN AIR INLET,Air,3
 Node,532,F8 N2 APARTMENT MIXED AIR OUTLET,Air,5
 Node,533,AIRLOOP F8 N2 SUPPLY AIR OUTLET,Air,3
 Node,534,AIRLOOP F8 S1 RETURN AIR INLET,Air,3
 Node,535,F8 S1 APARTMENT MIXED AIR OUTLET,Air,5
 Node,536,AIRLOOP F8 S1 SUPPLY AIR OUTLET,Air,3
 Node,537,AIRLOOP F8 S2 RETURN AIR INLET,Air,3
 Node,538,F8 S2 APARTMENT MIXED AIR OUTLET,Air,5
 Node,539,AIRLOOP F8 S2 SUPPLY AIR OUTLET,Air,3
 Node,540,AIRLOOP F9 SW RETURN AIR INLET,Air,3
 Node,541,F9 SW APARTMENT MIXED AIR OUTLET,Air,5
 Node,542,AIRLOOP F9 SW SUPPLY AIR OUTLET,Air,3
 Node,543,AIRLOOP F9 NW RETURN AIR INLET,Air,3
 Node,544,F9 NW APARTMENT MIXED AIR OUTLET,Air,5
 Node,545,AIRLOOP F9 NW SUPPLY AIR OUTLET,Air,3
 Node,546,AIRLOOP F9 SE RETURN AIR INLET,Air,3
 Node,547,F9 SE APARTMENT MIXED AIR OUTLET,Air,5
 Node,548,AIRLOOP F9 SE SUPPLY AIR OUTLET,Air,3
 Node,549,AIRLOOP F9 NE RETURN AIR INLET,Air,3
 Node,550,F9 NE APARTMENT MIXED AIR OUTLET,Air,5
 Node,551,AIRLOOP F9 NE SUPPLY AIR OUTLET,Air,3
 Node,552,AIRLOOP F9 N1 RETURN AIR INLET,Air,3
 Node,553,F9 N1 APARTMENT MIXED AIR OUTLET,Air,5
 Node,554,AIRLOOP F9 N1 SUPPLY AIR OUTLET,Air,3
 Node,555,AIRLOOP F9 N2 RETURN AIR INLET,Air,3
 Node,556,F9 N2 APARTMENT MIXED AIR OUTLET,Air,5
 Node,557,AIRLOOP F9 N2 SUPPLY AIR OUTLET,Air,3
 Node,558,AIRLOOP F9 S1 RETURN AIR INLET,Air,3
 Node,559,F9 S1 APARTMENT MIXED AIR OUTLET,Air,5
 Node,560,AIRLOOP F9 S1 SUPPLY AIR OUTLET,Air,3
 Node,561,AIRLOOP F9 S2 RETURN AIR INLET,Air,3
 Node,562,F9 S2 APARTMENT MIXED AIR OUTLET,Air,5
 Node,563,AIRLOOP F9 S2 SUPPLY AIR OUTLET,Air,3
 Node,564,AIRLOOP T SW RETURN AIR INLET,Air,3
 Node,565,T SW APARTMENT MIXED AIR OUTLET,Air,5
 Node,566,AIRLOOP T SW SUPPLY AIR OUTLET,Air,3
 Node,567,AIRLOOP T NW RETURN AIR INLET,Air,3
 Node,568,T NW APARTMENT MIXED AIR OUTLET,Air,5
 Node,569,AIRLOOP T NW SUPPLY AIR OUTLET,Air,3
 Node,570,AIRLOOP T SE RETURN AIR INLET,Air,3
 Node,571,T SE APARTMENT MIXED AIR OUTLET,Air,5
 Node,572,AIRLOOP T SE SUPPLY AIR OUTLET,Air,3
 Node,573,AIRLOOP T NE RETURN AIR INLET,Air,3
 Node,574,T NE APARTMENT MIXED AIR OUTLET,Air,5
 Node,575,AIRLOOP T NE SUPPLY AIR OUTLET,Air,3
 Node,576,AIRLOOP T N1 RETURN AIR INLET,Air,3
 Node,577,T N1 APARTMENT MIXED AIR OUTLET,Air,5
 Node,578,AIRLOOP T N1 SUPPLY AIR OUTLET,Air,3
 Node,579,AIRLOOP T N2 RETURN AIR INLET,Air,3
 Node,580,T N2 APARTMENT MIXED AIR OUTLET,Air,5
 Node,581,AIRLOOP T N2 SUPPLY AIR OUTLET,Air,3
 Node,582,AIRLOOP T S1 RETURN AIR INLET,Air,3
 Node,583,T S1 APARTMENT MIXED AIR OUTLET,Air,5
 Node,584,AIRLOOP T S1 SUPPLY AIR OUTLET,Air,3
 Node,585,AIRLOOP T S2 RETURN AIR INLET,Air,3
 Node,586,T S2 APARTMENT MIXED AIR OUTLET,Air,5
 Node,587,AIRLOOP T S2 SUPPLY AIR OUTLET,Air,3
 Node,588,AIRLOOP G SW WATER TO AIR HEAT PUMP SOURCE SIDE1 INLET NODE,Water,1
 Node,589,AIRLOOP G SW WATER TO AIR HEAT PUMP SOURCE SIDE1 OUTLET NODE,Water,1
 Node,590,AIRLOOP G NW WATER TO AIR HEAT PUMP SOURCE SIDE1 INLET NODE,Water,1
 Node,591,AIRLOOP G NW WATER TO AIR HEAT PUMP SOURCE SIDE1 OUTLET NODE,Water,1
 Node,592,AIRLOOP OFFICE WATER TO AIR HEAT PUMP SOURCE SIDE1 INLET NODE,Water,1
 Node,593,AIRLOOP OFFICE WATER TO AIR HEAT PUMP SOURCE SIDE1 OUTLET NODE,Water,1
 Node,594,AIRLOOP G NE WATER TO AIR HEAT PUMP SOURCE SIDE1 INLET NODE,Water,1
 Node,595,AIRLOOP G NE WATER TO AIR HEAT PUMP SOURCE SIDE1 OUTLET NODE,Water,1
 Node,596,AIRLOOP G N1 WATER TO AIR HEAT PUMP SOURCE SIDE1 INLET NODE,Water,1
 Node,597,AIRLOOP G N1 WATER TO AIR HEAT PUMP SOURCE SIDE1 OUTLET NODE,Water,1
 Node,598,AIRLOOP G N2 WATER TO AIR HEAT PUMP SOURCE SIDE1 INLET NODE,Water,1
 Node,599,AIRLOOP G N2 WATER TO AIR HEAT PUMP SOURCE SIDE1 OUTLET NODE,Water,1
 Node,600,AIRLOOP G S1 WATER TO AIR HEAT PUMP SOURCE SIDE1 INLET NODE,Water,1
 Node,601,AIRLOOP G S1 WATER TO AIR HEAT PUMP SOURCE SIDE1 OUTLET NODE,Water,1
 Node,602,AIRLOOP G S2 WATER TO AIR HEAT PUMP SOURCE SIDE1 INLET NODE,Water,1
 Node,603,AIRLOOP G S2 WATER TO AIR HEAT PUMP SOURCE SIDE1 OUTLET NODE,Water,1
 Node,604,AIRLOOP F2 SW WATER TO AIR HEAT PUMP SOURCE SIDE1 INLET NODE,Water,1
 Node,605,AIRLOOP F2 SW WATER TO AIR HEAT PUMP SOURCE SIDE1 OUTLET NODE,Water,1
 Node,606,AIRLOOP F2 NW WATER TO AIR HEAT PUMP SOURCE SIDE1 INLET NODE,Water,1
 Node,607,AIRLOOP F2 NW WATER TO AIR HEAT PUMP SOURCE SIDE1 OUTLET NODE,Water,1
 Node,608,AIRLOOP F2 SE WATER TO AIR HEAT PUMP SOURCE SIDE1 INLET NODE,Water,1
 Node,609,AIRLOOP F2 SE WATER TO AIR HEAT PUMP SOURCE SIDE1 OUTLET NODE,Water,1
 Node,610,AIRLOOP F2 NE WATER TO AIR HEAT PUMP SOURCE SIDE1 INLET NODE,Water,1
 Node,611,AIRLOOP F2 NE WATER TO AIR HEAT PUMP SOURCE SIDE1 OUTLET NODE,Water,1
 Node,612,AIRLOOP F2 N1 WATER TO AIR HEAT PUMP SOURCE SIDE1 INLET NODE,Water,1
 Node,613,AIRLOOP F2 N1 WATER TO AIR HEAT PUMP SOURCE SIDE1 OUTLET NODE,Water,1
 Node,614,AIRLOOP F2 N2 WATER TO AIR HEAT PUMP SOURCE SIDE1 INLET NODE,Water,1
 Node,615,AIRLOOP F2 N2 WATER TO AIR HEAT PUMP SOURCE SIDE1 OUTLET NODE,Water,1
 Node,616,AIRLOOP F2 S1 WATER TO AIR HEAT PUMP SOURCE SIDE1 INLET NODE,Water,1
 Node,617,AIRLOOP F2 S1 WATER TO AIR HEAT PUMP SOURCE SIDE1 OUTLET NODE,Water,1
 Node,618,AIRLOOP F2 S2 WATER TO AIR HEAT PUMP SOURCE SIDE1 INLET NODE,Water,1
 Node,619,AIRLOOP F2 S2 WATER TO AIR HEAT PUMP SOURCE SIDE1 OUTLET NODE,Water,1
 Node,620,AIRLOOP F3 SW WATER TO AIR HEAT PUMP SOURCE SIDE1 INLET NODE,Water,1
 Node,621,AIRLOOP F3 SW WATER TO AIR HEAT PUMP SOURCE SIDE1 OUTLET NODE,Water,1
 Node,622,AIRLOOP F3 NW WATER TO AIR HEAT PUMP SOURCE SIDE1 INLET NODE,Water,1
 Node,623,AIRLOOP F3 NW WATER TO AIR HEAT PUMP SOURCE SIDE1 OUTLET NODE,Water,1
 Node,624,AIRLOOP F3 SE WATER TO AIR HEAT PUMP SOURCE SIDE1 INLET NODE,Water,1
 Node,625,AIRLOOP F3 SE WATER TO AIR HEAT PUMP SOURCE SIDE1 OUTLET NODE,Water,1
 Node,626,AIRLOOP F3 NE WATER TO AIR HEAT PUMP SOURCE SIDE1 INLET NODE,Water,1
 Node,627,AIRLOOP F3 NE WATER TO AIR HEAT PUMP SOURCE SIDE1 OUTLET NODE,Water,1
 Node,628,AIRLOOP F3 N1 WATER TO AIR HEAT PUMP SOURCE SIDE1 INLET NODE,Water,1
 Node,629,AIRLOOP F3 N1 WATER TO AIR HEAT PUMP SOURCE SIDE1 OUTLET NODE,Water,1
 Node,630,AIRLOOP F3 N2 WATER TO AIR HEAT PUMP SOURCE SIDE1 INLET NODE,Water,1
 Node,631,AIRLOOP F3 N2 WATER TO AIR HEAT PUMP SOURCE SIDE1 OUTLET NODE,Water,1
 Node,632,AIRLOOP F3 S1 WATER TO AIR HEAT PUMP SOURCE SIDE1 INLET NODE,Water,1
 Node,633,AIRLOOP F3 S1 WATER TO AIR HEAT PUMP SOURCE SIDE1 OUTLET NODE,Water,1
 Node,634,AIRLOOP F3 S2 WATER TO AIR HEAT PUMP SOURCE SIDE1 INLET NODE,Water,1
 Node,635,AIRLOOP F3 S2 WATER TO AIR HEAT PUMP SOURCE SIDE1 OUTLET NODE,Water,1
 Node,636,AIRLOOP F4 SW WATER TO AIR HEAT PUMP SOURCE SIDE1 INLET NODE,Water,1
 Node,637,AIRLOOP F4 SW WATER TO AIR HEAT PUMP SOURCE SIDE1 OUTLET NODE,Water,1
 Node,638,AIRLOOP F4 NW WATER TO AIR HEAT PUMP SOURCE SIDE1 INLET NODE,Water,1
 Node,639,AIRLOOP F4 NW WATER TO AIR HEAT PUMP SOURCE SIDE1 OUTLET NODE,Water,1
 Node,640,AIRLOOP F4 SE WATER TO AIR HEAT PUMP SOURCE SIDE1 INLET NODE,Water,1
 Node,641,AIRLOOP F4 SE WATER TO AIR HEAT PUMP SOURCE SIDE1 OUTLET NODE,Water,1
 Node,642,AIRLOOP F4 NE WATER TO AIR HEAT PUMP SOURCE SIDE1 INLET NODE,Water,1
 Node,643,AIRLOOP F4 NE WATER TO AIR HEAT PUMP SOURCE SIDE1 OUTLET NODE,Water,1
 Node,644,AIRLOOP F4 N1 WATER TO AIR HEAT PUMP SOURCE SIDE1 INLET NODE,Water,1
 Node,645,AIRLOOP F4 N1 WATER TO AIR HEAT PUMP SOURCE SIDE1 OUTLET NODE,Water,1
 Node,646,AIRLOOP F4 N2 WATER TO AIR HEAT PUMP SOURCE SIDE1 INLET NODE,Water,1
 Node,647,AIRLOOP F4 N2 WATER TO AIR HEAT PUMP SOURCE SIDE1 OUTLET NODE,Water,1
 Node,648,AIRLOOP F4 S1 WATER TO AIR HEAT PUMP SOURCE SIDE1 INLET NODE,Water,1
 Node,649,AIRLOOP F4 S1 WATER TO AIR HEAT PUMP SOURCE SIDE1 OUTLET NODE,Water,1
 Node,650,AIRLOOP F4 S2 WATER TO AIR HEAT PUMP SOURCE SIDE1 INLET NODE,Water,1
 Node,651,AIRLOOP F4 S2 WATER TO AIR HEAT PUMP SOURCE SIDE1 OUTLET NODE,Water,1
 Node,652,AIRLOOP M SW WATER TO AIR HEAT PUMP SOURCE SIDE1 INLET NODE,Water,1
 Node,653,AIRLOOP M SW WATER TO AIR HEAT PUMP SOURCE SIDE1 OUTLET NODE,Water,1
 Node,654,AIRLOOP M NW WATER TO AIR HEAT PUMP SOURCE SIDE1 INLET NODE,Water,1
 Node,655,AIRLOOP M NW WATER TO AIR HEAT PUMP SOURCE SIDE1 OUTLET NODE,Water,1
 Node,656,AIRLOOP M SE WATER TO AIR HEAT PUMP SOURCE SIDE1 INLET NODE,Water,1
 Node,657,AIRLOOP M SE WATER TO AIR HEAT PUMP SOURCE SIDE1 OUTLET NODE,Water,1
 Node,658,AIRLOOP M NE WATER TO AIR HEAT PUMP SOURCE SIDE1 INLET NODE,Water,1
 Node,659,AIRLOOP M NE WATER TO AIR HEAT PUMP SOURCE SIDE1 OUTLET NODE,Water,1
 Node,660,AIRLOOP M N1 WATER TO AIR HEAT PUMP SOURCE SIDE1 INLET NODE,Water,1
 Node,661,AIRLOOP M N1 WATER TO AIR HEAT PUMP SOURCE SIDE1 OUTLET NODE,Water,1
 Node,662,AIRLOOP M N2 WATER TO AIR HEAT PUMP SOURCE SIDE1 INLET NODE,Water,1
 Node,663,AIRLOOP M N2 WATER TO AIR HEAT PUMP SOURCE SIDE1 OUTLET NODE,Water,1
 Node,664,AIRLOOP M S1 WATER TO AIR HEAT PUMP SOURCE SIDE1 INLET NODE,Water,1
 Node,665,AIRLOOP M S1 WATER TO AIR HEAT PUMP SOURCE SIDE1 OUTLET NODE,Water,1
 Node,666,AIRLOOP M S2 WATER TO AIR HEAT PUMP SOURCE SIDE1 INLET NODE,Water,1
 Node,667,AIRLOOP M S2 WATER TO AIR HEAT PUMP SOURCE SIDE1 OUTLET NODE,Water,1
 Node,668,AIRLOOP F6 SW WATER TO AIR HEAT PUMP SOURCE SIDE1 INLET NODE,Water,1
 Node,669,AIRLOOP F6 SW WATER TO AIR HEAT PUMP SOURCE SIDE1 OUTLET NODE,Water,1
 Node,670,AIRLOOP F6 NW WATER TO AIR HEAT PUMP SOURCE SIDE1 INLET NODE,Water,1
 Node,671,AIRLOOP F6 NW WATER TO AIR HEAT PUMP SOURCE SIDE1 OUTLET NODE,Water,1
 Node,672,AIRLOOP F6 SE WATER TO AIR HEAT PUMP SOURCE SIDE1 INLET NODE,Water,1
 Node,673,AIRLOOP F6 SE WATER TO AIR HEAT PUMP SOURCE SIDE1 OUTLET NODE,Water,1
 Node,674,AIRLOOP F6 NE WATER TO AIR HEAT PUMP SOURCE SIDE1 INLET NODE,Water,1
 Node,675,AIRLOOP F6 NE WATER TO AIR HEAT PUMP SOURCE SIDE1 OUTLET NODE,Water,1
 Node,676,AIRLOOP F6 N1 WATER TO AIR HEAT PUMP SOURCE SIDE1 INLET NODE,Water,1
 Node,677,AIRLOOP F6 N1 WATER TO AIR HEAT PUMP SOURCE SIDE1 OUTLET NODE,Water,1
 Node,678,AIRLOOP F6 N2 WATER TO AIR HEAT PUMP SOURCE SIDE1 INLET NODE,Water,1
 Node,679,AIRLOOP F6 N2 WATER TO AIR HEAT PUMP SOURCE SIDE1 OUTLET NODE,Water,1
 Node,680,AIRLOOP F6 S1 WATER TO AIR HEAT PUMP SOURCE SIDE1 INLET NODE,Water,1
 Node,681,AIRLOOP F6 S1 WATER TO AIR HEAT PUMP SOURCE SIDE1 OUTLET NODE,Water,1
 Node,682,AIRLOOP F6 S2 WATER TO AIR HEAT PUMP SOURCE SIDE1 INLET NODE,Water,1
 Node,683,AIRLOOP F6 S2 WATER TO AIR HEAT PUMP SOURCE SIDE1 OUTLET NODE,Water,1
 Node,684,AIRLOOP F7 SW WATER TO AIR HEAT PUMP SOURCE SIDE1 INLET NODE,Water,1
 Node,685,AIRLOOP F7 SW WATER TO AIR HEAT PUMP SOURCE SIDE1 OUTLET NODE,Water,1
 Node,686,AIRLOOP F7 NW WATER TO AIR HEAT PUMP SOURCE SIDE1 INLET NODE,Water,1
 Node,687,AIRLOOP F7 NW WATER TO AIR HEAT PUMP SOURCE SIDE1 OUTLET NODE,Water,1
 Node,688,AIRLOOP F7 SE WATER TO AIR HEAT PUMP SOURCE SIDE1 INLET NODE,Water,1
 Node,689,AIRLOOP F7 SE WATER TO AIR HEAT PUMP SOURCE SIDE1 OUTLET NODE,Water,1
 Node,690,AIRLOOP F7 NE WATER TO AIR HEAT PUMP SOURCE SIDE1 INLET NODE,Water,1
 Node,691,AIRLOOP F7 NE WATER TO AIR HEAT PUMP SOURCE SIDE1 OUTLET NODE,Water,1
 Node,692,AIRLOOP F7 N1 WATER TO AIR HEAT PUMP SOURCE SIDE1 INLET NODE,Water,1
 Node,693,AIRLOOP F7 N1 WATER TO AIR HEAT PUMP SOURCE SIDE1 OUTLET NODE,Water,1
 Node,694,AIRLOOP F7 N2 WATER TO AIR HEAT PUMP SOURCE SIDE1 INLET NODE,Water,1
 Node,695,AIRLOOP F7 N2 WATER TO AIR HEAT PUMP SOURCE SIDE1 OUTLET NODE,Water,1
 Node,696,AIRLOOP F7 S1 WATER TO AIR HEAT PUMP SOURCE SIDE1 INLET NODE,Water,1
 Node,697,AIRLOOP F7 S1 WATER TO AIR HEAT PUMP SOURCE SIDE1 OUTLET NODE,Water,1
 Node,698,AIRLOOP F7 S2 WATER TO AIR HEAT PUMP SOURCE SIDE1 INLET NODE,Water,1
 Node,699,AIRLOOP F7 S2 WATER TO AIR HEAT PUMP SOURCE SIDE1 OUTLET NODE,Water,1
 Node,700,AIRLOOP F8 SW WATER TO AIR HEAT PUMP SOURCE SIDE1 INLET NODE,Water,1
 Node,701,AIRLOOP F8 SW WATER TO AIR HEAT PUMP SOURCE SIDE1 OUTLET NODE,Water,1
 Node,702,AIRLOOP F8 NW WATER TO AIR HEAT PUMP SOURCE SIDE1 INLET NODE,Water,1
 Node,703,AIRLOOP F8 NW WATER TO AIR HEAT PUMP SOURCE SIDE1 OUTLET NODE,Water,1
 Node,704,AIRLOOP F8 SE WATER TO AIR HEAT PUMP SOURCE SIDE1 INLET NODE,Water,1
 Node,705,AIRLOOP F8 SE WATER TO AIR HEAT PUMP SOURCE SIDE1 OUTLET NODE,Water,1
 Node,706,AIRLOOP F8 NE WATER TO AIR HEAT PUMP SOURCE SIDE1 INLET NODE,Water,1
 Node,707,AIRLOOP F8 NE WATER TO AIR HEAT PUMP SOURCE SIDE1 OUTLET NODE,Water,1
 Node,708,AIRLOOP F8 N1 WATER TO AIR HEAT PUMP SOURCE SIDE1 INLET NODE,Water,1
 Node,709,AIRLOOP F8 N1 WATER TO AIR HEAT PUMP SOURCE SIDE1 OUTLET NODE,Water,1
 Node,710,AIRLOOP F8 N2 WATER TO AIR HEAT PUMP SOURCE SIDE1 INLET NODE,Water,1
 Node,711,AIRLOOP F8 N2 WATER TO AIR HEAT PUMP SOURCE SIDE1 OUTLET NODE,Water,1
 Node,712,AIRLOOP F8 S1 WATER TO AIR HEAT PUMP SOURCE SIDE1 INLET NODE,Water,1
 Node,713,AIRLOOP F8 S1 WATER TO AIR HEAT PUMP SOURCE SIDE1 OUTLET NODE,Water,1
 Node,714,AIRLOOP F8 S2 WATER TO AIR HEAT PUMP SOURCE SIDE1 INLET NODE,Water,1
 Node,715,AIRLOOP F8 S2 WATER TO AIR HEAT PUMP SOURCE SIDE1 OUTLET NODE,Water,1
 Node,716,AIRLOOP F9 SW WATER TO AIR HEAT PUMP SOURCE SIDE1 INLET NODE,Water,1
 Node,717,AIRLOOP F9 SW WATER TO AIR HEAT PUMP SOURCE SIDE1 OUTLET NODE,Water,1
 Node,718,AIRLOOP F9 NW WATER TO AIR HEAT PUMP SOURCE SIDE1 INLET NODE,Water,1
 Node,719,AIRLOOP F9 NW WATER TO AIR HEAT PUMP SOURCE SIDE1 OUTLET NODE,Water,1
 Node,720,AIRLOOP F9 SE WATER TO AIR HEAT PUMP SOURCE SIDE1 INLET NODE,Water,1
 Node,721,AIRLOOP F9 SE WATER TO AIR HEAT PUMP SOURCE SIDE1 OUTLET NODE,Water,1
 Node,722,AIRLOOP F9 NE WATER TO AIR HEAT PUMP SOURCE SIDE1 INLET NODE,Water,1
 Node,723,AIRLOOP F9 NE WATER TO AIR HEAT PUMP SOURCE SIDE1 OUTLET NODE,Water,1
 Node,724,AIRLOOP F9 N1 WATER TO AIR HEAT PUMP SOURCE SIDE1 INLET NODE,Water,1
 Node,725,AIRLOOP F9 N1 WATER TO AIR HEAT PUMP SOURCE SIDE1 OUTLET NODE,Water,1
 Node,726,AIRLOOP F9 N2 WATER TO AIR HEAT PUMP SOURCE SIDE1 INLET NODE,Water,1
 Node,727,AIRLOOP F9 N2 WATER TO AIR HEAT PUMP SOURCE SIDE1 OUTLET NODE,Water,1
 Node,728,AIRLOOP F9 S1 WATER TO AIR HEAT PUMP SOURCE SIDE1 INLET NODE,Water,1
 Node,729,AIRLOOP F9 S1 WATER TO AIR HEAT PUMP SOURCE SIDE1 OUTLET NODE,Water,1
 Node,730,AIRLOOP F9 S2 WATER TO AIR HEAT PUMP SOURCE SIDE1 INLET NODE,Water,1
 Node,731,AIRLOOP F9 S2 WATER TO AIR HEAT PUMP SOURCE SIDE1 OUTLET NODE,Water,1
 Node,732,AIRLOOP T SW WATER TO AIR HEAT PUMP SOURCE SIDE1 INLET NODE,Water,1
 Node,733,AIRLOOP T SW WATER TO AIR HEAT PUMP SOURCE SIDE1 OUTLET NODE,Water,1
 Node,734,AIRLOOP T NW WATER TO AIR HEAT PUMP SOURCE SIDE1 INLET NODE,Water,1
 Node,735,AIRLOOP T NW WATER TO AIR HEAT PUMP SOURCE SIDE1 OUTLET NODE,Water,1
 Node,736,AIRLOOP T SE WATER TO AIR HEAT PUMP SOURCE SIDE1 INLET NODE,Water,1
 Node,737,AIRLOOP T SE WATER TO AIR HEAT PUMP SOURCE SIDE1 OUTLET NODE,Water,1
 Node,738,AIRLOOP T NE WATER TO AIR HEAT PUMP SOURCE SIDE1 INLET NODE,Water,1
 Node,739,AIRLOOP T NE WATER TO AIR HEAT PUMP SOURCE SIDE1 OUTLET NODE,Water,1
 Node,740,AIRLOOP T N1 WATER TO AIR HEAT PUMP SOURCE SIDE1 INLET NODE,Water,1
 Node,741,AIRLOOP T N1 WATER TO AIR HEAT PUMP SOURCE SIDE1 OUTLET NODE,Water,1
 Node,742,AIRLOOP T N2 WATER TO AIR HEAT PUMP SOURCE SIDE1 INLET NODE,Water,1
 Node,743,AIRLOOP T N2 WATER TO AIR HEAT PUMP SOURCE SIDE1 OUTLET NODE,Water,1
 Node,744,AIRLOOP T S1 WATER TO AIR HEAT PUMP SOURCE SIDE1 INLET NODE,Water,1
 Node,745,AIRLOOP T S1 WATER TO AIR HEAT PUMP SOURCE SIDE1 OUTLET NODE,Water,1
 Node,746,AIRLOOP T S2 WATER TO AIR HEAT PUMP SOURCE SIDE1 INLET NODE,Water,1
 Node,747,AIRLOOP T S2 WATER TO AIR HEAT PUMP SOURCE SIDE1 OUTLET NODE,Water,1
 Node,748,AIRLOOP G SW WATER TO AIR HEAT PUMP SOURCE SIDE2 INLET NODE,Water,1
 Node,749,AIRLOOP G SW WATER TO AIR HEAT PUMP SOURCE SIDE2 OUTLET NODE,Water,1
 Node,750,AIRLOOP G NW WATER TO AIR HEAT PUMP SOURCE SIDE2 INLET NODE,Water,1
 Node,751,AIRLOOP G NW WATER TO AIR HEAT PUMP SOURCE SIDE2 OUTLET NODE,Water,1
 Node,752,AIRLOOP OFFICE WATER TO AIR HEAT PUMP SOURCE SIDE2 INLET NODE,Water,1
 Node,753,AIRLOOP OFFICE WATER TO AIR HEAT PUMP SOURCE SIDE2 OUTLET NODE,Water,1
 Node,754,AIRLOOP G NE WATER TO AIR HEAT PUMP SOURCE SIDE2 INLET NODE,Water,1
 Node,755,AIRLOOP G NE WATER TO AIR HEAT PUMP SOURCE SIDE2 OUTLET NODE,Water,1
 Node,756,AIRLOOP G N1 WATER TO AIR HEAT PUMP SOURCE SIDE2 INLET NODE,Water,1
 Node,757,AIRLOOP G N1 WATER TO AIR HEAT PUMP SOURCE SIDE2 OUTLET NODE,Water,1
 Node,758,AIRLOOP G N2 WATER TO AIR HEAT PUMP SOURCE SIDE2 INLET NODE,Water,1
 Node,759,AIRLOOP G N2 WATER TO AIR HEAT PUMP SOURCE SIDE2 OUTLET NODE,Water,1
 Node,760,AIRLOOP G S1 WATER TO AIR HEAT PUMP SOURCE SIDE2 INLET NODE,Water,1
 Node,761,AIRLOOP G S1 WATER TO AIR HEAT PUMP SOURCE SIDE2 OUTLET NODE,Water,1
 Node,762,AIRLOOP G S2 WATER TO AIR HEAT PUMP SOURCE SIDE2 INLET NODE,Water,1
 Node,763,AIRLOOP G S2 WATER TO AIR HEAT PUMP SOURCE SIDE2 OUTLET NODE,Water,1
 Node,764,AIRLOOP F2 SW WATER TO AIR HEAT PUMP SOURCE SIDE2 INLET NODE,Water,1
 Node,765,AIRLOOP F2 SW WATER TO AIR HEAT PUMP SOURCE SIDE2 OUTLET NODE,Water,1
 Node,766,AIRLOOP F2 NW WATER TO AIR HEAT PUMP SOURCE SIDE2 INLET NODE,Water,1
 Node,767,AIRLOOP F2 NW WATER TO AIR HEAT PUMP SOURCE SIDE2 OUTLET NODE,Water,1
 Node,768,AIRLOOP F2 SE WATER TO AIR HEAT PUMP SOURCE SIDE2 INLET NODE,Water,1
 Node,769,AIRLOOP F2 SE WATER TO AIR HEAT PUMP SOURCE SIDE2 OUTLET NODE,Water,1
 Node,770,AIRLOOP F2 NE WATER TO AIR HEAT PUMP SOURCE SIDE2 INLET NODE,Water,1
 Node,771,AIRLOOP F2 NE WATER TO AIR HEAT PUMP SOURCE SIDE2 OUTLET NODE,Water,1
 Node,772,AIRLOOP F2 N1 WATER TO AIR HEAT PUMP SOURCE SIDE2 INLET NODE,Water,1
 Node,773,AIRLOOP F2 N1 WATER TO AIR HEAT PUMP SOURCE SIDE2 OUTLET NODE,Water,1
 Node,774,AIRLOOP F2 N2 WATER TO AIR HEAT PUMP SOURCE SIDE2 INLET NODE,Water,1
 Node,775,AIRLOOP F2 N2 WATER TO AIR HEAT PUMP SOURCE SIDE2 OUTLET NODE,Water,1
 Node,776,AIRLOOP F2 S1 WATER TO AIR HEAT PUMP SOURCE SIDE2 INLET NODE,Water,1
 Node,777,AIRLOOP F2 S1 WATER TO AIR HEAT PUMP SOURCE SIDE2 OUTLET NODE,Water,1
 Node,778,AIRLOOP F2 S2 WATER TO AIR HEAT PUMP SOURCE SIDE2 INLET NODE,Water,1
 Node,779,AIRLOOP F2 S2 WATER TO AIR HEAT PUMP SOURCE SIDE2 OUTLET NODE,Water,1
 Node,780,AIRLOOP F3 SW WATER TO AIR HEAT PUMP SOURCE SIDE2 INLET NODE,Water,1
 Node,781,AIRLOOP F3 SW WATER TO AIR HEAT PUMP SOURCE SIDE2 OUTLET NODE,Water,1
 Node,782,AIRLOOP F3 NW WATER TO AIR HEAT PUMP SOURCE SIDE2 INLET NODE,Water,1
 Node,783,AIRLOOP F3 NW WATER TO AIR HEAT PUMP SOURCE SIDE2 OUTLET NODE,Water,1
 Node,784,AIRLOOP F3 SE WATER TO AIR HEAT PUMP SOURCE SIDE2 INLET NODE,Water,1
 Node,785,AIRLOOP F3 SE WATER TO AIR HEAT PUMP SOURCE SIDE2 OUTLET NODE,Water,1
 Node,786,AIRLOOP F3 NE WATER TO AIR HEAT PUMP SOURCE SIDE2 INLET NODE,Water,1
 Node,787,AIRLOOP F3 NE WATER TO AIR HEAT PUMP SOURCE SIDE2 OUTLET NODE,Water,1
 Node,788,AIRLOOP F3 N1 WATER TO AIR HEAT PUMP SOURCE SIDE2 INLET NODE,Water,1
 Node,789,AIRLOOP F3 N1 WATER TO AIR HEAT PUMP SOURCE SIDE2 OUTLET NODE,Water,1
 Node,790,AIRLOOP F3 N2 WATER TO AIR HEAT PUMP SOURCE SIDE2 INLET NODE,Water,1
 Node,791,AIRLOOP F3 N2 WATER TO AIR HEAT PUMP SOURCE SIDE2 OUTLET NODE,Water,1
 Node,792,AIRLOOP F3 S1 WATER TO AIR HEAT PUMP SOURCE SIDE2 INLET NODE,Water,1
 Node,793,AIRLOOP F3 S1 WATER TO AIR HEAT PUMP SOURCE SIDE2 OUTLET NODE,Water,1
 Node,794,AIRLOOP F3 S2 WATER TO AIR HEAT PUMP SOURCE SIDE2 INLET NODE,Water,1
 Node,795,AIRLOOP F3 S2 WATER TO AIR HEAT PUMP SOURCE SIDE2 OUTLET NODE,Water,1
 Node,796,AIRLOOP F4 SW WATER TO AIR HEAT PUMP SOURCE SIDE2 INLET NODE,Water,1
 Node,797,AIRLOOP F4 SW WATER TO AIR HEAT PUMP SOURCE SIDE2 OUTLET NODE,Water,1
 Node,798,AIRLOOP F4 NW WATER TO AIR HEAT PUMP SOURCE SIDE2 INLET NODE,Water,1
 Node,799,AIRLOOP F4 NW WATER TO AIR HEAT PUMP SOURCE SIDE2 OUTLET NODE,Water,1
 Node,800,AIRLOOP F4 SE WATER TO AIR HEAT PUMP SOURCE SIDE2 INLET NODE,Water,1
 Node,801,AIRLOOP F4 SE WATER TO AIR HEAT PUMP SOURCE SIDE2 OUTLET NODE,Water,1
 Node,802,AIRLOOP F4 NE WATER TO AIR HEAT PUMP SOURCE SIDE2 INLET NODE,Water,1
 Node,803,AIRLOOP F4 NE WATER TO AIR HEAT PUMP SOURCE SIDE2 OUTLET NODE,Water,1
 Node,804,AIRLOOP F4 N1 WATER TO AIR HEAT PUMP SOURCE SIDE2 INLET NODE,Water,1
 Node,805,AIRLOOP F4 N1 WATER TO AIR HEAT PUMP SOURCE SIDE2 OUTLET NODE,Water,1
 Node,806,AIRLOOP F4 N2 WATER TO AIR HEAT PUMP SOURCE SIDE2 INLET NODE,Water,1
 Node,807,AIRLOOP F4 N2 WATER TO AIR HEAT PUMP SOURCE SIDE2 OUTLET NODE,Water,1
 Node,808,AIRLOOP F4 S1 WATER TO AIR HEAT PUMP SOURCE SIDE2 INLET NODE,Water,1
 Node,809,AIRLOOP F4 S1 WATER TO AIR HEAT PUMP SOURCE SIDE2 OUTLET NODE,Water,1
 Node,810,AIRLOOP F4 S2 WATER TO AIR HEAT PUMP SOURCE SIDE2 INLET NODE,Water,1
 Node,811,AIRLOOP F4 S2 WATER TO AIR HEAT PUMP SOURCE SIDE2 OUTLET NODE,Water,1
 Node,812,AIRLOOP M SW WATER TO AIR HEAT PUMP SOURCE SIDE2 INLET NODE,Water,1
 Node,813,AIRLOOP M SW WATER TO AIR HEAT PUMP SOURCE SIDE2 OUTLET NODE,Water,1
 Node,814,AIRLOOP M NW WATER TO AIR HEAT PUMP SOURCE SIDE2 INLET NODE,Water,1
 Node,815,AIRLOOP M NW WATER TO AIR HEAT PUMP SOURCE SIDE2 OUTLET NODE,Water,1
 Node,816,AIRLOOP M SE WATER TO AIR HEAT PUMP SOURCE SIDE2 INLET NODE,Water,1
 Node,817,AIRLOOP M SE WATER TO AIR HEAT PUMP SOURCE SIDE2 OUTLET NODE,Water,1
 Node,818,AIRLOOP M NE WATER TO AIR HEAT PUMP SOURCE SIDE2 INLET NODE,Water,1
 Node,819,AIRLOOP M NE WATER TO AIR HEAT PUMP SOURCE SIDE2 OUTLET NODE,Water,1
 Node,820,AIRLOOP M N1 WATER TO AIR HEAT PUMP SOURCE SIDE2 INLET NODE,Water,1
 Node,821,AIRLOOP M N1 WATER TO AIR HEAT PUMP SOURCE SIDE2 OUTLET NODE,Water,1
 Node,822,AIRLOOP M N2 WATER TO AIR HEAT PUMP SOURCE SIDE2 INLET NODE,Water,1
 Node,823,AIRLOOP M N2 WATER TO AIR HEAT PUMP SOURCE SIDE2 OUTLET NODE,Water,1
 Node,824,AIRLOOP M S1 WATER TO AIR HEAT PUMP SOURCE SIDE2 INLET NODE,Water,1
 Node,825,AIRLOOP M S1 WATER TO AIR HEAT PUMP SOURCE SIDE2 OUTLET NODE,Water,1
 Node,826,AIRLOOP M S2 WATER TO AIR HEAT PUMP SOURCE SIDE2 INLET NODE,Water,1
 Node,827,AIRLOOP M S2 WATER TO AIR HEAT PUMP SOURCE SIDE2 OUTLET NODE,Water,1
 Node,828,AIRLOOP F6 SW WATER TO AIR HEAT PUMP SOURCE SIDE2 INLET NODE,Water,1
 Node,829,AIRLOOP F6 SW WATER TO AIR HEAT PUMP SOURCE SIDE2 OUTLET NODE,Water,1
 Node,830,AIRLOOP F6 NW WATER TO AIR HEAT PUMP SOURCE SIDE2 INLET NODE,Water,1
 Node,831,AIRLOOP F6 NW WATER TO AIR HEAT PUMP SOURCE SIDE2 OUTLET NODE,Water,1
 Node,832,AIRLOOP F6 SE WATER TO AIR HEAT PUMP SOURCE SIDE2 INLET NODE,Water,1
 Node,833,AIRLOOP F6 SE WATER TO AIR HEAT PUMP SOURCE SIDE2 OUTLET NODE,Water,1
 Node,834,AIRLOOP F6 NE WATER TO AIR HEAT PUMP SOURCE SIDE2 INLET NODE,Water,1
 Node,835,AIRLOOP F6 NE WATER TO AIR HEAT PUMP SOURCE SIDE2 OUTLET NODE,Water,1
 Node,836,AIRLOOP F6 N1 WATER TO AIR HEAT PUMP SOURCE SIDE2 INLET NODE,Water,1
 Node,837,AIRLOOP F6 N1 WATER TO AIR HEAT PUMP SOURCE SIDE2 OUTLET NODE,Water,1
 Node,838,AIRLOOP F6 N2 WATER TO AIR HEAT PUMP SOURCE SIDE2 INLET NODE,Water,1
 Node,839,AIRLOOP F6 N2 WATER TO AIR HEAT PUMP SOURCE SIDE2 OUTLET NODE,Water,1
 Node,840,AIRLOOP F6 S1 WATER TO AIR HEAT PUMP SOURCE SIDE2 INLET NODE,Water,1
 Node,841,AIRLOOP F6 S1 WATER TO AIR HEAT PUMP SOURCE SIDE2 OUTLET NODE,Water,1
 Node,842,AIRLOOP F6 S2 WATER TO AIR HEAT PUMP SOURCE SIDE2 INLET NODE,Water,1
 Node,843,AIRLOOP F6 S2 WATER TO AIR HEAT PUMP SOURCE SIDE2 OUTLET NODE,Water,1
 Node,844,AIRLOOP F7 SW WATER TO AIR HEAT PUMP SOURCE SIDE2 INLET NODE,Water,1
 Node,845,AIRLOOP F7 SW WATER TO AIR HEAT PUMP SOURCE SIDE2 OUTLET NODE,Water,1
 Node,846,AIRLOOP F7 NW WATER TO AIR HEAT PUMP SOURCE SIDE2 INLET NODE,Water,1
 Node,847,AIRLOOP F7 NW WATER TO AIR HEAT PUMP SOURCE SIDE2 OUTLET NODE,Water,1
 Node,848,AIRLOOP F7 SE WATER TO AIR HEAT PUMP SOURCE SIDE2 INLET NODE,Water,1
 Node,849,AIRLOOP F7 SE WATER TO AIR HEAT PUMP SOURCE SIDE2 OUTLET NODE,Water,1
 Node,850,AIRLOOP F7 NE WATER TO AIR HEAT PUMP SOURCE SIDE2 INLET NODE,Water,1
 Node,851,AIRLOOP F7 NE WATER TO AIR HEAT PUMP SOURCE SIDE2 OUTLET NODE,Water,1
 Node,852,AIRLOOP F7 N1 WATER TO AIR HEAT PUMP SOURCE SIDE2 INLET NODE,Water,1
 Node,853,AIRLOOP F7 N1 WATER TO AIR HEAT PUMP SOURCE SIDE2 OUTLET NODE,Water,1
 Node,854,AIRLOOP F7 N2 WATER TO AIR HEAT PUMP SOURCE SIDE2 INLET NODE,Water,1
 Node,855,AIRLOOP F7 N2 WATER TO AIR HEAT PUMP SOURCE SIDE2 OUTLET NODE,Water,1
 Node,856,AIRLOOP F7 S1 WATER TO AIR HEAT PUMP SOURCE SIDE2 INLET NODE,Water,1
 Node,857,AIRLOOP F7 S1 WATER TO AIR HEAT PUMP SOURCE SIDE2 OUTLET NODE,Water,1
 Node,858,AIRLOOP F7 S2 WATER TO AIR HEAT PUMP SOURCE SIDE2 INLET NODE,Water,1
 Node,859,AIRLOOP F7 S2 WATER TO AIR HEAT PUMP SOURCE SIDE2 OUTLET NODE,Water,1
 Node,860,AIRLOOP F8 SW WATER TO AIR HEAT PUMP SOURCE SIDE2 INLET NODE,Water,1
 Node,861,AIRLOOP F8 SW WATER TO AIR HEAT PUMP SOURCE SIDE2 OUTLET NODE,Water,1
 Node,862,AIRLOOP F8 NW WATER TO AIR HEAT PUMP SOURCE SIDE2 INLET NODE,Water,1
 Node,863,AIRLOOP F8 NW WATER TO AIR HEAT PUMP SOURCE SIDE2 OUTLET NODE,Water,1
 Node,864,AIRLOOP F8 SE WATER TO AIR HEAT PUMP SOURCE SIDE2 INLET NODE,Water,1
 Node,865,AIRLOOP F8 SE WATER TO AIR HEAT PUMP SOURCE SIDE2 OUTLET NODE,Water,1
 Node,866,AIRLOOP F8 NE WATER TO AIR HEAT PUMP SOURCE SIDE2 INLET NODE,Water,1
 Node,867,AIRLOOP F8 NE WATER TO AIR HEAT PUMP SOURCE SIDE2 OUTLET NODE,Water,1
 Node,868,AIRLOOP F8 N1 WATER TO AIR HEAT PUMP SOURCE SIDE2 INLET NODE,Water,1
 Node,869,AIRLOOP F8 N1 WATER TO AIR HEAT PUMP SOURCE SIDE2 OUTLET NODE,Water,1
 Node,870,AIRLOOP F8 N2 WATER TO AIR HEAT PUMP SOURCE SIDE2 INLET NODE,Water,1
 Node,871,AIRLOOP F8 N2 WATER TO AIR HEAT PUMP SOURCE SIDE2 OUTLET NODE,Water,1
 Node,872,AIRLOOP F8 S1 WATER TO AIR HEAT PUMP SOURCE SIDE2 INLET NODE,Water,1
 Node,873,AIRLOOP F8 S1 WATER TO AIR HEAT PUMP SOURCE SIDE2 OUTLET NODE,Water,1
 Node,874,AIRLOOP F8 S2 WATER TO AIR HEAT PUMP SOURCE SIDE2 INLET NODE,Water,1
 Node,875,AIRLOOP F8 S2 WATER TO AIR HEAT PUMP SOURCE SIDE2 OUTLET NODE,Water,1
 Node,876,AIRLOOP F9 SW WATER TO AIR HEAT PUMP SOURCE SIDE2 INLET NODE,Water,1
 Node,877,AIRLOOP F9 SW WATER TO AIR HEAT PUMP SOURCE SIDE2 OUTLET NODE,Water,1
 Node,878,AIRLOOP F9 NW WATER TO AIR HEAT PUMP SOURCE SIDE2 INLET NODE,Water,1
 Node,879,AIRLOOP F9 NW WATER TO AIR HEAT PUMP SOURCE SIDE2 OUTLET NODE,Water,1
 Node,880,AIRLOOP F9 SE WATER TO AIR HEAT PUMP SOURCE SIDE2 INLET NODE,Water,1
 Node,881,AIRLOOP F9 SE WATER TO AIR HEAT PUMP SOURCE SIDE2 OUTLET NODE,Water,1
 Node,882,AIRLOOP F9 NE WATER TO AIR HEAT PUMP SOURCE SIDE2 INLET NODE,Water,1
 Node,883,AIRLOOP F9 NE WATER TO AIR HEAT PUMP SOURCE SIDE2 OUTLET NODE,Water,1
 Node,884,AIRLOOP F9 N1 WATER TO AIR HEAT PUMP SOURCE SIDE2 INLET NODE,Water,1
 Node,885,AIRLOOP F9 N1 WATER TO AIR HEAT PUMP SOURCE SIDE2 OUTLET NODE,Water,1
 Node,886,AIRLOOP F9 N2 WATER TO AIR HEAT PUMP SOURCE SIDE2 INLET NODE,Water,1
 Node,887,AIRLOOP F9 N2 WATER TO AIR HEAT PUMP SOURCE SIDE2 OUTLET NODE,Water,1
 Node,888,AIRLOOP F9 S1 WATER TO AIR HEAT PUMP SOURCE SIDE2 INLET NODE,Water,1
 Node,889,AIRLOOP F9 S1 WATER TO AIR HEAT PUMP SOURCE SIDE2 OUTLET NODE,Water,1
 Node,890,AIRLOOP F9 S2 WATER TO AIR HEAT PUMP SOURCE SIDE2 INLET NODE,Water,1
 Node,891,AIRLOOP F9 S2 WATER TO AIR HEAT PUMP SOURCE SIDE2 OUTLET NODE,Water,1
 Node,892,AIRLOOP T SW WATER TO AIR HEAT PUMP SOURCE SIDE2 INLET NODE,Water,1
 Node,893,AIRLOOP T SW WATER TO AIR HEAT PUMP SOURCE SIDE2 OUTLET NODE,Water,1
 Node,894,AIRLOOP T NW WATER TO AIR HEAT PUMP SOURCE SIDE2 INLET NODE,Water,1
 Node,895,AIRLOOP T NW WATER TO AIR HEAT PUMP SOURCE SIDE2 OUTLET NODE,Water,1
 Node,896,AIRLOOP T SE WATER TO AIR HEAT PUMP SOURCE SIDE2 INLET NODE,Water,1
 Node,897,AIRLOOP T SE WATER TO AIR HEAT PUMP SOURCE SIDE2 OUTLET NODE,Water,1
 Node,898,AIRLOOP T NE WATER TO AIR HEAT PUMP SOURCE SIDE2 INLET NODE,Water,1
 Node,899,AIRLOOP T NE WATER TO AIR HEAT PUMP SOURCE SIDE2 OUTLET NODE,Water,1
 Node,900,AIRLOOP T N1 WATER TO AIR HEAT PUMP SOURCE SIDE2 INLET NODE,Water,1
 Node,901,AIRLOOP T N1 WATER TO AIR HEAT PUMP SOURCE SIDE2 OUTLET NODE,Water,1
 Node,902,AIRLOOP T N2 WATER TO AIR HEAT PUMP SOURCE SIDE2 INLET NODE,Water,1
 Node,903,AIRLOOP T N2 WATER TO AIR HEAT PUMP SOURCE SIDE2 OUTLET NODE,Water,1
 Node,904,AIRLOOP T S1 WATER TO AIR HEAT PUMP SOURCE SIDE2 INLET NODE,Water,1
 Node,905,AIRLOOP T S1 WATER TO AIR HEAT PUMP SOURCE SIDE2 OUTLET NODE,Water,1
 Node,906,AIRLOOP T S2 WATER TO AIR HEAT PUMP SOURCE SIDE2 INLET NODE,Water,1
 Node,907,AIRLOOP T S2 WATER TO AIR HEAT PUMP SOURCE SIDE2 OUTLET NODE,Water,1
 Node,908,G SW APARTMENT ZONE AIR NODE,Air,0
 Node,909,G SW APARTMENT ZONE EXHAUST NODE,Air,2
 Node,910,G SW APARTMENT RETURN OUTLET,Air,1
 Node,911,G NW APARTMENT ZONE AIR NODE,Air,0
 Node,912,G NW APARTMENT ZONE EXHAUST NODE,Air,2
 Node,913,G NW APARTMENT RETURN OUTLET,Air,1
 Node,914,OFFICE ZONE AIR NODE,Air,0
 Node,915,OFFICE RETURN OUTLET,Air,1
 Node,916,G NE APARTMENT ZONE AIR NODE,Air,0
 Node,917,G NE APARTMENT ZONE EXHAUST NODE,Air,2
 Node,918,G NE APARTMENT RETURN OUTLET,Air,1
 Node,919,G N1 APARTMENT ZONE AIR NODE,Air,0
 Node,920,G N1 APARTMENT ZONE EXHAUST NODE,Air,2
 Node,921,G N1 APARTMENT RETURN OUTLET,Air,1
 Node,922,G N2 APARTMENT ZONE AIR NODE,Air,0
 Node,923,G N2 APARTMENT ZONE EXHAUST NODE,Air,2
 Node,924,G N2 APARTMENT RETURN OUTLET,Air,1
 Node,925,G S1 APARTMENT ZONE AIR NODE,Air,0
 Node,926,G S1 APARTMENT ZONE EXHAUST NODE,Air,2
 Node,927,G S1 APARTMENT RETURN OUTLET,Air,1
 Node,928,G S2 APARTMENT ZONE AIR NODE,Air,0
 Node,929,G S2 APARTMENT ZONE EXHAUST NODE,Air,2
 Node,930,G S2 APARTMENT RETURN OUTLET,Air,1
 Node,931,F2 SW APARTMENT ZONE AIR NODE,Air,0
 Node,932,F2 SW APARTMENT ZONE EXHAUST NODE,Air,2
 Node,933,F2 SW APARTMENT RETURN OUTLET,Air,1
 Node,934,F2 NW APARTMENT ZONE AIR NODE,Air,0
 Node,935,F2 NW APARTMENT ZONE EXHAUST NODE,Air,2
 Node,936,F2 NW APARTMENT RETURN OUTLET,Air,1
 Node,937,F2 SE APARTMENT ZONE AIR NODE,Air,0
 Node,938,F2 SE APARTMENT ZONE EXHAUST NODE,Air,2
 Node,939,F2 SE APARTMENT RETURN OUTLET,Air,1
 Node,940,F2 NE APARTMENT ZONE AIR NODE,Air,0
 Node,941,F2 NE APARTMENT ZONE EXHAUST NODE,Air,2
 Node,942,F2 NE APARTMENT RETURN OUTLET,Air,1
 Node,943,F2 N1 APARTMENT ZONE AIR NODE,Air,0
 Node,944,F2 N1 APARTMENT ZONE EXHAUST NODE,Air,2
 Node,945,F2 N1 APARTMENT RETURN OUTLET,Air,1
 Node,946,F2 N2 APARTMENT ZONE AIR NODE,Air,0
 Node,947,F2 N2 APARTMENT ZONE EXHAUST NODE,Air,2
 Node,948,F2 N2 APARTMENT RETURN OUTLET,Air,1
 Node,949,F2 S1 APARTMENT ZONE AIR NODE,Air,0
 Node,950,F2 S1 APARTMENT ZONE EXHAUST NODE,Air,2
 Node,951,F2 S1 APARTMENT RETURN OUTLET,Air,1
 Node,952,F2 S2 APARTMENT ZONE AIR NODE,Air,0
 Node,953,F2 S2 APARTMENT ZONE EXHAUST NODE,Air,2
 Node,954,F2 S2 APARTMENT RETURN OUTLET,Air,1
 Node,955,F3 SW APARTMENT ZONE AIR NODE,Air,0
 Node,956,F3 SW APARTMENT ZONE EXHAUST NODE,Air,2
 Node,957,F3 SW APARTMENT RETURN OUTLET,Air,1
 Node,958,F3 NW APARTMENT ZONE AIR NODE,Air,0
 Node,959,F3 NW APARTMENT ZONE EXHAUST NODE,Air,2
 Node,960,F3 NW APARTMENT RETURN OUTLET,Air,1
 Node,961,F3 SE APARTMENT ZONE AIR NODE,Air,0
 Node,962,F3 SE APARTMENT ZONE EXHAUST NODE,Air,2
 Node,963,F3 SE APARTMENT RETURN OUTLET,Air,1
 Node,964,F3 NE APARTMENT ZONE AIR NODE,Air,0
 Node,965,F3 NE APARTMENT ZONE EXHAUST NODE,Air,2
 Node,966,F3 NE APARTMENT RETURN OUTLET,Air,1
 Node,967,F3 N1 APARTMENT ZONE AIR NODE,Air,0
 Node,968,F3 N1 APARTMENT ZONE EXHAUST NODE,Air,2
 Node,969,F3 N1 APARTMENT RETURN OUTLET,Air,1
 Node,970,F3 N2 APARTMENT ZONE AIR NODE,Air,0
 Node,971,F3 N2 APARTMENT ZONE EXHAUST NODE,Air,2
 Node,972,F3 N2 APARTMENT RETURN OUTLET,Air,1
 Node,973,F3 S1 APARTMENT ZONE AIR NODE,Air,0
 Node,974,F3 S1 APARTMENT ZONE EXHAUST NODE,Air,2
 Node,975,F3 S1 APARTMENT RETURN OUTLET,Air,1
 Node,976,F3 S2 APARTMENT ZONE AIR NODE,Air,0
 Node,977,F3 S2 APARTMENT ZONE EXHAUST NODE,Air,2
 Node,978,F3 S2 APARTMENT RETURN OUTLET,Air,1
 Node,979,F4 SW APARTMENT ZONE AIR NODE,Air,0
 Node,980,F4 SW APARTMENT ZONE EXHAUST NODE,Air,2
 Node,981,F4 SW APARTMENT RETURN OUTLET,Air,1
 Node,982,F4 NW APARTMENT ZONE AIR NODE,Air,0
 Node,983,F4 NW APARTMENT ZONE EXHAUST NODE,Air,2
 Node,984,F4 NW APARTMENT RETURN OUTLET,Air,1
 Node,985,F4 SE APARTMENT ZONE AIR NODE,Air,0
 Node,986,F4 SE APARTMENT ZONE EXHAUST NODE,Air,2
 Node,987,F4 SE APARTMENT RETURN OUTLET,Air,1
 Node,988,F4 NE APARTMENT ZONE AIR NODE,Air,0
 Node,989,F4 NE APARTMENT ZONE EXHAUST NODE,Air,2
 Node,990,F4 NE APARTMENT RETURN OUTLET,Air,1
 Node,991,F4 N1 APARTMENT ZONE AIR NODE,Air,0
 Node,992,F4 N1 APARTMENT ZONE EXHAUST NODE,Air,2
 Node,993,F4 N1 APARTMENT RETURN OUTLET,Air,1
 Node,994,F4 N2 APARTMENT ZONE AIR NODE,Air,0
 Node,995,F4 N2 APARTMENT ZONE EXHAUST NODE,Air,2
 Node,996,F4 N2 APARTMENT RETURN OUTLET,Air,1
 Node,997,F4 S1 APARTMENT ZONE AIR NODE,Air,0
 Node,998,F4 S1 APARTMENT ZONE EXHAUST NODE,Air,2
 Node,999,F4 S1 APARTMENT RETURN OUTLET,Air,1
 Node,1000,F4 S2 APARTMENT ZONE AIR NODE,Air,0
 Node,1001,F4 S2 APARTMENT ZONE EXHAUST NODE,Air,2
 Node,1002,F4 S2 APARTMENT RETURN OUTLET,Air,1
 Node,1003,M SW APARTMENT ZONE AIR NODE,Air,0
 Node,1004,M SW APARTMENT ZONE EXHAUST NODE,Air,2
 Node,1005,M SW APARTMENT RETURN OUTLET,Air,1
 Node,1006,M NW APARTMENT ZONE AIR NODE,Air,0
 Node,1007,M NW APARTMENT ZONE EXHAUST NODE,Air,2
 Node,1008,M NW APARTMENT RETURN OUTLET,Air,1
 Node,1009,M SE APARTMENT ZONE AIR NODE,Air,0
 Node,1010,M SE APARTMENT ZONE EXHAUST NODE,Air,2
 Node,1011,M SE APARTMENT RETURN OUTLET,Air,1
 Node,1012,M NE APARTMENT ZONE AIR NODE,Air,0
 Node,1013,M NE APARTMENT ZONE EXHAUST NODE,Air,2
 Node,1014,M NE APARTMENT RETURN OUTLET,Air,1
 Node,1015,M N1 APARTMENT ZONE AIR NODE,Air,0
 Node,1016,M N1 APARTMENT ZONE EXHAUST NODE,Air,2
 Node,1017,M N1 APARTMENT RETURN OUTLET,Air,1
 Node,1018,M N2 APARTMENT ZONE AIR NODE,Air,0
 Node,1019,M N2 APARTMENT ZONE EXHAUST NODE,Air,2
 Node,1020,M N2 APARTMENT RETURN OUTLET,Air,1
 Node,1021,M S1 APARTMENT ZONE AIR NODE,Air,0
 Node,1022,M S1 APARTMENT ZONE EXHAUST NODE,Air,2
 Node,1023,M S1 APARTMENT RETURN OUTLET,Air,1
 Node,1024,M S2 APARTMENT ZONE AIR NODE,Air,0
 Node,1025,M S2 APARTMENT ZONE EXHAUST NODE,Air,2
 Node,1026,M S2 APARTMENT RETURN OUTLET,Air,1
 Node,1027,F6 SW APARTMENT ZONE AIR NODE,Air,0
 Node,1028,F6 SW APARTMENT ZONE EXHAUST NODE,Air,2
 Node,1029,F6 SW APARTMENT RETURN OUTLET,Air,1
 Node,1030,F6 NW APARTMENT ZONE AIR NODE,Air,0
 Node,1031,F6 NW APARTMENT ZONE EXHAUST NODE,Air,2
 Node,1032,F6 NW APARTMENT RETURN OUTLET,Air,1
 Node,1033,F6 SE APARTMENT ZONE AIR NODE,Air,0
 Node,1034,F6 SE APARTMENT ZONE EXHAUST NODE,Air,2
 Node,1035,F6 SE APARTMENT RETURN OUTLET,Air,1
 Node,1036,F6 NE APARTMENT ZONE AIR NODE,Air,0
 Node,1037,F6 NE APARTMENT ZONE EXHAUST NODE,Air,2
 Node,1038,F6 NE APARTMENT RETURN OUTLET,Air,1
 Node,1039,F6 N1 APARTMENT ZONE AIR NODE,Air,0
 Node,1040,F6 N1 APARTMENT ZONE EXHAUST NODE,Air,2
 Node,1041,F6 N1 APARTMENT RETURN OUTLET,Air,1
 Node,1042,F6 N2 APARTMENT ZONE AIR NODE,Air,0
 Node,1043,F6 N2 APARTMENT ZONE EXHAUST NODE,Air,2
 Node,1044,F6 N2 APARTMENT RETURN OUTLET,Air,1
 Node,1045,F6 S1 APARTMENT ZONE AIR NODE,Air,0
 Node,1046,F6 S1 APARTMENT ZONE EXHAUST NODE,Air,2
 Node,1047,F6 S1 APARTMENT RETURN OUTLET,Air,1
 Node,1048,F6 S2 APARTMENT ZONE AIR NODE,Air,0
 Node,1049,F6 S2 APARTMENT ZONE EXHAUST NODE,Air,2
 Node,1050,F6 S2 APARTMENT RETURN OUTLET,Air,1
 Node,1051,F7 SW APARTMENT ZONE AIR NODE,Air,0
 Node,1052,F7 SW APARTMENT ZONE EXHAUST NODE,Air,2
 Node,1053,F7 SW APARTMENT RETURN OUTLET,Air,1
 Node,1054,F7 NW APARTMENT ZONE AIR NODE,Air,0
 Node,1055,F7 NW APARTMENT ZONE EXHAUST NODE,Air,2
 Node,1056,F7 NW APARTMENT RETURN OUTLET,Air,1
 Node,1057,F7 SE APARTMENT ZONE AIR NODE,Air,0
 Node,1058,F7 SE APARTMENT ZONE EXHAUST NODE,Air,2
 Node,1059,F7 SE APARTMENT RETURN OUTLET,Air,1
 Node,1060,F7 NE APARTMENT ZONE AIR NODE,Air,0
 Node,1061,F7 NE APARTMENT ZONE EXHAUST NODE,Air,2
 Node,1062,F7 NE APARTMENT RETURN OUTLET,Air,1
 Node,1063,F7 N1 APARTMENT ZONE AIR NODE,Air,0
 Node,1064,F7 N1 APARTMENT ZONE EXHAUST NODE,Air,2
 Node,1065,F7 N1 APARTMENT RETURN OUTLET,Air,1
 Node,1066,F7 N2 APARTMENT ZONE AIR NODE,Air,0
 Node,1067,F7 N2 APARTMENT ZONE EXHAUST NODE,Air,2
 Node,1068,F7 N2 APARTMENT RETURN OUTLET,Air,1
 Node,1069,F7 S1 APARTMENT ZONE AIR NODE,Air,0
 Node,1070,F7 S1 APARTMENT ZONE EXHAUST NODE,Air,2
 Node,1071,F7 S1 APARTMENT RETURN OUTLET,Air,1
 Node,1072,F7 S2 APARTMENT ZONE AIR NODE,Air,0
 Node,1073,F7 S2 APARTMENT ZONE EXHAUST NODE,Air,2
 Node,1074,F7 S2 APARTMENT RETURN OUTLET,Air,1
 Node,1075,F8 SW APARTMENT ZONE AIR NODE,Air,0
 Node,1076,F8 SW APARTMENT ZONE EXHAUST NODE,Air,2
 Node,1077,F8 SW APARTMENT RETURN OUTLET,Air,1
 Node,1078,F8 NW APARTMENT ZONE AIR NODE,Air,0
 Node,1079,F8 NW APARTMENT ZONE EXHAUST NODE,Air,2
 Node,1080,F8 NW APARTMENT RETURN OUTLET,Air,1
 Node,1081,F8 SE APARTMENT ZONE AIR NODE,Air,0
 Node,1082,F8 SE APARTMENT ZONE EXHAUST NODE,Air,2
 Node,1083,F8 SE APARTMENT RETURN OUTLET,Air,1
 Node,1084,F8 NE APARTMENT ZONE AIR NODE,Air,0
 Node,1085,F8 NE APARTMENT ZONE EXHAUST NODE,Air,2
 Node,1086,F8 NE APARTMENT RETURN OUTLET,Air,1
 Node,1087,F8 N1 APARTMENT ZONE AIR NODE,Air,0
 Node,1088,F8 N1 APARTMENT ZONE EXHAUST NODE,Air,2
 Node,1089,F8 N1 APARTMENT RETURN OUTLET,Air,1
 Node,1090,F8 N2 APARTMENT ZONE AIR NODE,Air,0
 Node,1091,F8 N2 APARTMENT ZONE EXHAUST NODE,Air,2
 Node,1092,F8 N2 APARTMENT RETURN OUTLET,Air,1
 Node,1093,F8 S1 APARTMENT ZONE AIR NODE,Air,0
 Node,1094,F8 S1 APARTMENT ZONE EXHAUST NODE,Air,2
 Node,1095,F8 S1 APARTMENT RETURN OUTLET,Air,1
 Node,1096,F8 S2 APARTMENT ZONE AIR NODE,Air,0
 Node,1097,F8 S2 APARTMENT ZONE EXHAUST NODE,Air,2
 Node,1098,F8 S2 APARTMENT RETURN OUTLET,Air,1
 Node,1099,F9 SW APARTMENT ZONE AIR NODE,Air,0
 Node,1100,F9 SW APARTMENT ZONE EXHAUST NODE,Air,2
 Node,1101,F9 SW APARTMENT RETURN OUTLET,Air,1
 Node,1102,F9 NW APARTMENT ZONE AIR NODE,Air,0
 Node,1103,F9 NW APARTMENT ZONE EXHAUST NODE,Air,2
 Node,1104,F9 NW APARTMENT RETURN OUTLET,Air,1
 Node,1105,F9 SE APARTMENT ZONE AIR NODE,Air,0
 Node,1106,F9 SE APARTMENT ZONE EXHAUST NODE,Air,2
 Node,1107,F9 SE APARTMENT RETURN OUTLET,Air,1
 Node,1108,F9 NE APARTMENT ZONE AIR NODE,Air,0
 Node,1109,F9 NE APARTMENT ZONE EXHAUST NODE,Air,2
 Node,1110,F9 NE APARTMENT RETURN OUTLET,Air,1
 Node,1111,F9 N1 APARTMENT ZONE AIR NODE,Air,0
 Node,1112,F9 N1 APARTMENT ZONE EXHAUST NODE,Air,2
 Node,1113,F9 N1 APARTMENT RETURN OUTLET,Air,1
 Node,1114,F9 N2 APARTMENT ZONE AIR NODE,Air,0
 Node,1115,F9 N2 APARTMENT ZONE EXHAUST NODE,Air,2
 Node,1116,F9 N2 APARTMENT RETURN OUTLET,Air,1
 Node,1117,F9 S1 APARTMENT ZONE AIR NODE,Air,0
 Node,1118,F9 S1 APARTMENT ZONE EXHAUST NODE,Air,2
 Node,1119,F9 S1 APARTMENT RETURN OUTLET,Air,1
 Node,1120,F9 S2 APARTMENT ZONE AIR NODE,Air,0
 Node,1121,F9 S2 APARTMENT ZONE EXHAUST NODE,Air,2
 Node,1122,F9 S2 APARTMENT RETURN OUTLET,Air,1
 Node,1123,T SW APARTMENT ZONE AIR NODE,Air,0
 Node,1124,T SW APARTMENT ZONE EXHAUST NODE,Air,2
 Node,1125,T SW APARTMENT RETURN OUTLET,Air,1
 Node,1126,T NW APARTMENT ZONE AIR NODE,Air,0
 Node,1127,T NW APARTMENT ZONE EXHAUST NODE,Air,2
 Node,1128,T NW APARTMENT RETURN OUTLET,Air,1
 Node,1129,T SE APARTMENT ZONE AIR NODE,Air,0
 Node,1130,T SE APARTMENT ZONE EXHAUST NODE,Air,2
 Node,1131,T SE APARTMENT RETURN OUTLET,Air,1
 Node,1132,T NE APARTMENT ZONE AIR NODE,Air,0
 Node,1133,T NE APARTMENT ZONE EXHAUST NODE,Air,2
 Node,1134,T NE APARTMENT RETURN OUTLET,Air,1
 Node,1135,T N1 APARTMENT ZONE AIR NODE,Air,0
 Node,1136,T N1 APARTMENT ZONE EXHAUST NODE,Air,2
 Node,1137,T N1 APARTMENT RETURN OUTLET,Air,1
 Node,1138,T N2 APARTMENT ZONE AIR NODE,Air,0
 Node,1139,T N2 APARTMENT ZONE EXHAUST NODE,Air,2
 Node,1140,T N2 APARTMENT RETURN OUTLET,Air,1
 Node,1141,T S1 APARTMENT ZONE AIR NODE,Air,0
 Node,1142,T S1 APARTMENT ZONE EXHAUST NODE,Air,2
 Node,1143,T S1 APARTMENT RETURN OUTLET,Air,1
 Node,1144,T S2 APARTMENT ZONE AIR NODE,Air,0
 Node,1145,T S2 APARTMENT ZONE EXHAUST NODE,Air,2
 Node,1146,T S2 APARTMENT RETURN OUTLET,Air,1
 Node,1147,ZONESPLITTER G SW SUPPLY AIR INLET,Air,2
 Node,1148,ZONESPLITTER G NW SUPPLY AIR INLET,Air,2
 Node,1149,ZONESPLITTER OFFICE SUPPLY AIR INLET,Air,2
 Node,1150,ZONESPLITTER G NE SUPPLY AIR INLET,Air,2
 Node,1151,ZONESPLITTER G N1 SUPPLY AIR INLET,Air,2
 Node,1152,ZONESPLITTER G N2 SUPPLY AIR INLET,Air,2
 Node,1153,ZONESPLITTER G S1 SUPPLY AIR INLET,Air,2
 Node,1154,ZONESPLITTER G S2 SUPPLY AIR INLET,Air,2
 Node,1155,ZONESPLITTER F2 SW SUPPLY AIR INLET,Air,2
 Node,1156,ZONESPLITTER F2 NW SUPPLY AIR INLET,Air,2
 Node,1157,ZONESPLITTER F2 SE SUPPLY AIR INLET,Air,2
 Node,1158,ZONESPLITTER F2 NE SUPPLY AIR INLET,Air,2
 Node,1159,ZONESPLITTER F2 N1 SUPPLY AIR INLET,Air,2
 Node,1160,ZONESPLITTER F2 N2 SUPPLY AIR INLET,Air,2
 Node,1161,ZONESPLITTER F2 S1 SUPPLY AIR INLET,Air,2
 Node,1162,ZONESPLITTER F2 S2 SUPPLY AIR INLET,Air,2
 Node,1163,ZONESPLITTER F3 SW SUPPLY AIR INLET,Air,2
 Node,1164,ZONESPLITTER F3 NW SUPPLY AIR INLET,Air,2
 Node,1165,ZONESPLITTER F3 SE SUPPLY AIR INLET,Air,2
 Node,1166,ZONESPLITTER F3 NE SUPPLY AIR INLET,Air,2
 Node,1167,ZONESPLITTER F3 N1 SUPPLY AIR INLET,Air,2
 Node,1168,ZONESPLITTER F3 N2 SUPPLY AIR INLET,Air,2
 Node,1169,ZONESPLITTER F3 S1 SUPPLY AIR INLET,Air,2
 Node,1170,ZONESPLITTER F3 S2 SUPPLY AIR INLET,Air,2
 Node,1171,ZONESPLITTER F4 SW SUPPLY AIR INLET,Air,2
 Node,1172,ZONESPLITTER F4 NW SUPPLY AIR INLET,Air,2
 Node,1173,ZONESPLITTER F4 SE SUPPLY AIR INLET,Air,2
 Node,1174,ZONESPLITTER F4 NE SUPPLY AIR INLET,Air,2
 Node,1175,ZONESPLITTER F4 N1 SUPPLY AIR INLET,Air,2
 Node,1176,ZONESPLITTER F4 N2 SUPPLY AIR INLET,Air,2
 Node,1177,ZONESPLITTER F4 S1 SUPPLY AIR INLET,Air,2
 Node,1178,ZONESPLITTER F4 S2 SUPPLY AIR INLET,Air,2
 Node,1179,ZONESPLITTER M SW SUPPLY AIR INLET,Air,2
 Node,1180,ZONESPLITTER M NW SUPPLY AIR INLET,Air,2
 Node,1181,ZONESPLITTER M SE SUPPLY AIR INLET,Air,2
 Node,1182,ZONESPLITTER M NE SUPPLY AIR INLET,Air,2
 Node,1183,ZONESPLITTER M N1 SUPPLY AIR INLET,Air,2
 Node,1184,ZONESPLITTER M N2 SUPPLY AIR INLET,Air,2
 Node,1185,ZONESPLITTER M S1 SUPPLY AIR INLET,Air,2
 Node,1186,ZONESPLITTER M S2 SUPPLY AIR INLET,Air,2
 Node,1187,ZONESPLITTER F6 SW SUPPLY AIR INLET,Air,2
 Node,1188,ZONESPLITTER F6 NW SUPPLY AIR INLET,Air,2
 Node,1189,ZONESPLITTER F6 SE SUPPLY AIR INLET,Air,2
 Node,1190,ZONESPLITTER F6 NE SUPPLY AIR INLET,Air,2
 Node,1191,ZONESPLITTER F6 N1 SUPPLY AIR INLET,Air,2
 Node,1192,ZONESPLITTER F6 N2 SUPPLY AIR INLET,Air,2
 Node,1193,ZONESPLITTER F6 S1 SUPPLY AIR INLET,Air,2
 Node,1194,ZONESPLITTER F6 S2 SUPPLY AIR INLET,Air,2
 Node,1195,ZONESPLITTER F7 SW SUPPLY AIR INLET,Air,2
 Node,1196,ZONESPLITTER F7 NW SUPPLY AIR INLET,Air,2
 Node,1197,ZONESPLITTER F7 SE SUPPLY AIR INLET,Air,2
 Node,1198,ZONESPLITTER F7 NE SUPPLY AIR INLET,Air,2
 Node,1199,ZONESPLITTER F7 N1 SUPPLY AIR INLET,Air,2
 Node,1200,ZONESPLITTER F7 N2 SUPPLY AIR INLET,Air,2
 Node,1201,ZONESPLITTER F7 S1 SUPPLY AIR INLET,Air,2
 Node,1202,ZONESPLITTER F7 S2 SUPPLY AIR INLET,Air,2
 Node,1203,ZONESPLITTER F8 SW SUPPLY AIR INLET,Air,2
 Node,1204,ZONESPLITTER F8 NW SUPPLY AIR INLET,Air,2
 Node,1205,ZONESPLITTER F8 SE SUPPLY AIR INLET,Air,2
 Node,1206,ZONESPLITTER F8 NE SUPPLY AIR INLET,Air,2
 Node,1207,ZONESPLITTER F8 N1 SUPPLY AIR INLET,Air,2
 Node,1208,ZONESPLITTER F8 N2 SUPPLY AIR INLET,Air,2
 Node,1209,ZONESPLITTER F8 S1 SUPPLY AIR INLET,Air,2
 Node,1210,ZONESPLITTER F8 S2 SUPPLY AIR INLET,Air,2
 Node,1211,ZONESPLITTER F9 SW SUPPLY AIR INLET,Air,2
 Node,1212,ZONESPLITTER F9 NW SUPPLY AIR INLET,Air,2
 Node,1213,ZONESPLITTER F9 SE SUPPLY AIR INLET,Air,2
 Node,1214,ZONESPLITTER F9 NE SUPPLY AIR INLET,Air,2
 Node,1215,ZONESPLITTER F9 N1 SUPPLY AIR INLET,Air,2
 Node,1216,ZONESPLITTER F9 N2 SUPPLY AIR INLET,Air,2
 Node,1217,ZONESPLITTER F9 S1 SUPPLY AIR INLET,Air,2
 Node,1218,ZONESPLITTER F9 S2 SUPPLY AIR INLET,Air,2
 Node,1219,ZONESPLITTER T SW SUPPLY AIR INLET,Air,2
 Node,1220,ZONESPLITTER T NW SUPPLY AIR INLET,Air,2
 Node,1221,ZONESPLITTER T SE SUPPLY AIR INLET,Air,2
 Node,1222,ZONESPLITTER T NE SUPPLY AIR INLET,Air,2
 Node,1223,ZONESPLITTER T N1 SUPPLY AIR INLET,Air,2
 Node,1224,ZONESPLITTER T N2 SUPPLY AIR INLET,Air,2
 Node,1225,ZONESPLITTER T S1 SUPPLY AIR INLET,Air,2
 Node,1226,ZONESPLITTER T S2 SUPPLY AIR INLET,Air,2
 Node,1227,ZONEMIXER G SW RETURN AIR OUTLET,Air,2
 Node,1228,ZONEMIXER G NW RETURN AIR OUTLET,Air,2
 Node,1229,ZONEMIXER OFFICE RETURN AIR OUTLET,Air,2
 Node,1230,ZONEMIXER G NE RETURN AIR OUTLET,Air,2
 Node,1231,ZONEMIXER G N1 RETURN AIR OUTLET,Air,2
 Node,1232,ZONEMIXER G N2 RETURN AIR OUTLET,Air,2
 Node,1233,ZONEMIXER G S1 RETURN AIR OUTLET,Air,2
 Node,1234,ZONEMIXER G S2 RETURN AIR OUTLET,Air,2
 Node,1235,ZONEMIXER F2 SW RETURN AIR OUTLET,Air,2
 Node,1236,ZONEMIXER F2 NW RETURN AIR OUTLET,Air,2
 Node,1237,ZONEMIXER F2 SE RETURN AIR OUTLET,Air,2
 Node,1238,ZONEMIXER F2 NE RETURN AIR OUTLET,Air,2
 Node,1239,ZONEMIXER F2 N1 RETURN AIR OUTLET,Air,2
 Node,1240,ZONEMIXER F2 N2 RETURN AIR OUTLET,Air,2
 Node,1241,ZONEMIXER F2 S1 RETURN AIR OUTLET,Air,2
 Node,1242,ZONEMIXER F2 S2 RETURN AIR OUTLET,Air,2
 Node,1243,ZONEMIXER F3 SW RETURN AIR OUTLET,Air,2
 Node,1244,ZONEMIXER F3 NW RETURN AIR OUTLET,Air,2
 Node,1245,ZONEMIXER F3 SE RETURN AIR OUTLET,Air,2
 Node,1246,ZONEMIXER F3 NE RETURN AIR OUTLET,Air,2
 Node,1247,ZONEMIXER F3 N1 RETURN AIR OUTLET,Air,2
 Node,1248,ZONEMIXER F3 N2 RETURN AIR OUTLET,Air,2
 Node,1249,ZONEMIXER F3 S1 RETURN AIR OUTLET,Air,2
 Node,1250,ZONEMIXER F3 S2 RETURN AIR OUTLET,Air,2
 Node,1251,ZONEMIXER F4 SW RETURN AIR OUTLET,Air,2
 Node,1252,ZONEMIXER F4 NW RETURN AIR OUTLET,Air,2
 Node,1253,ZONEMIXER F4 SE RETURN AIR OUTLET,Air,2
 Node,1254,ZONEMIXER F4 NE RETURN AIR OUTLET,Air,2
 Node,1255,ZONEMIXER F4 N1 RETURN AIR OUTLET,Air,2
 Node,1256,ZONEMIXER F4 N2 RETURN AIR OUTLET,Air,2
 Node,1257,ZONEMIXER F4 S1 RETURN AIR OUTLET,Air,2
 Node,1258,ZONEMIXER F4 S2 RETURN AIR OUTLET,Air,2
 Node,1259,ZONEMIXER M SW RETURN AIR OUTLET,Air,2
 Node,1260,ZONEMIXER M NW RETURN AIR OUTLET,Air,2
 Node,1261,ZONEMIXER M SE RETURN AIR OUTLET,Air,2
 Node,1262,ZONEMIXER M NE RETURN AIR OUTLET,Air,2
 Node,1263,ZONEMIXER M N1 RETURN AIR OUTLET,Air,2
 Node,1264,ZONEMIXER M N2 RETURN AIR OUTLET,Air,2
 Node,1265,ZONEMIXER M S1 RETURN AIR OUTLET,Air,2
 Node,1266,ZONEMIXER M S2 RETURN AIR OUTLET,Air,2
 Node,1267,ZONEMIXER F6 SW RETURN AIR OUTLET,Air,2
 Node,1268,ZONEMIXER F6 NW RETURN AIR OUTLET,Air,2
 Node,1269,ZONEMIXER F6 SE RETURN AIR OUTLET,Air,2
 Node,1270,ZONEMIXER F6 NE RETURN AIR OUTLET,Air,2
 Node,1271,ZONEMIXER F6 N1 RETURN AIR OUTLET,Air,2
 Node,1272,ZONEMIXER F6 N2 RETURN AIR OUTLET,Air,2
 Node,1273,ZONEMIXER F6 S1 RETURN AIR OUTLET,Air,2
 Node,1274,ZONEMIXER F6 S2 RETURN AIR OUTLET,Air,2
 Node,1275,ZONEMIXER F7 SW RETURN AIR OUTLET,Air,2
 Node,1276,ZONEMIXER F7 NW RETURN AIR OUTLET,Air,2
 Node,1277,ZONEMIXER F7 SE RETURN AIR OUTLET,Air,2
 Node,1278,ZONEMIXER F7 NE RETURN AIR OUTLET,Air,2
 Node,1279,ZONEMIXER F7 N1 RETURN AIR OUTLET,Air,2
 Node,1280,ZONEMIXER F7 N2 RETURN AIR OUTLET,Air,2
 Node,1281,ZONEMIXER F7 S1 RETURN AIR OUTLET,Air,2
 Node,1282,ZONEMIXER F7 S2 RETURN AIR OUTLET,Air,2
 Node,1283,ZONEMIXER F8 SW RETURN AIR OUTLET,Air,2
 Node,1284,ZONEMIXER F8 NW RETURN AIR OUTLET,Air,2
 Node,1285,ZONEMIXER F8 SE RETURN AIR OUTLET,Air,2
 Node,1286,ZONEMIXER F8 NE RETURN AIR OUTLET,Air,2
 Node,1287,ZONEMIXER F8 N1 RETURN AIR OUTLET,Air,2
 Node,1288,ZONEMIXER F8 N2 RETURN AIR OUTLET,Air,2
 Node,1289,ZONEMIXER F8 S1 RETURN AIR OUTLET,Air,2
 Node,1290,ZONEMIXER F8 S2 RETURN AIR OUTLET,Air,2
 Node,1291,ZONEMIXER F9 SW RETURN AIR OUTLET,Air,2
 Node,1292,ZONEMIXER F9 NW RETURN AIR OUTLET,Air,2
 Node,1293,ZONEMIXER F9 SE RETURN AIR OUTLET,Air,2
 Node,1294,ZONEMIXER F9 NE RETURN AIR OUTLET,Air,2
 Node,1295,ZONEMIXER F9 N1 RETURN AIR OUTLET,Air,2
 Node,1296,ZONEMIXER F9 N2 RETURN AIR OUTLET,Air,2
 Node,1297,ZONEMIXER F9 S1 RETURN AIR OUTLET,Air,2
 Node,1298,ZONEMIXER F9 S2 RETURN AIR OUTLET,Air,2
 Node,1299,ZONEMIXER T SW RETURN AIR OUTLET,Air,2
 Node,1300,ZONEMIXER T NW RETURN AIR OUTLET,Air,2
 Node,1301,ZONEMIXER T SE RETURN AIR OUTLET,Air,2
 Node,1302,ZONEMIXER T NE RETURN AIR OUTLET,Air,2
 Node,1303,ZONEMIXER T N1 RETURN AIR OUTLET,Air,2
 Node,1304,ZONEMIXER T N2 RETURN AIR OUTLET,Air,2
 Node,1305,ZONEMIXER T S1 RETURN AIR OUTLET,Air,2
 Node,1306,ZONEMIXER T S2 RETURN AIR OUTLET,Air,2
 Node,1307,CENTRAL CHILLER CONDENSER INLET NODE,Air,0
 Node,1308,COMMON OSA INLET NODE,Air,80
 Node,1309,G SW APARTMENT OUTSIDE AIR INLET,Air,2
 Node,1310,G NW APARTMENT OUTSIDE AIR INLET,Air,2
 Node,1311,OFFICE OUTSIDE AIR INLET,Air,2
 Node,1312,G NE APARTMENT OUTSIDE AIR INLET,Air,2
 Node,1313,G N1 APARTMENT OUTSIDE AIR INLET,Air,2
 Node,1314,G N2 APARTMENT OUTSIDE AIR INLET,Air,2
 Node,1315,G S1 APARTMENT OUTSIDE AIR INLET,Air,2
 Node,1316,G S2 APARTMENT OUTSIDE AIR INLET,Air,2
 Node,1317,F2 SW APARTMENT OUTSIDE AIR INLET,Air,2
 Node,1318,F2 NW APARTMENT OUTSIDE AIR INLET,Air,2
 Node,1319,F2 SE APARTMENT OUTSIDE AIR INLET,Air,2
 Node,1320,F2 NE APARTMENT OUTSIDE AIR INLET,Air,2
 Node,1321,F2 N1 APARTMENT OUTSIDE AIR INLET,Air,2
 Node,1322,F2 N2 APARTMENT OUTSIDE AIR INLET,Air,2
 Node,1323,F2 S1 APARTMENT OUTSIDE AIR INLET,Air,2
 Node,1324,F2 S2 APARTMENT OUTSIDE AIR INLET,Air,2
 Node,1325,F3 SW APARTMENT OUTSIDE AIR INLET,Air,2
 Node,1326,F3 NW APARTMENT OUTSIDE AIR INLET,Air,2
 Node,1327,F3 SE APARTMENT OUTSIDE AIR INLET,Air,2
 Node,1328,F3 NE APARTMENT OUTSIDE AIR INLET,Air,2
 Node,1329,F3 N1 APARTMENT OUTSIDE AIR INLET,Air,2
 Node,1330,F3 N2 APARTMENT OUTSIDE AIR INLET,Air,2
 Node,1331,F3 S1 APARTMENT OUTSIDE AIR INLET,Air,2
 Node,1332,F3 S2 APARTMENT OUTSIDE AIR INLET,Air,2
 Node,1333,F4 SW APARTMENT OUTSIDE AIR INLET,Air,2
 Node,1334,F4 NW APARTMENT OUTSIDE AIR INLET,Air,2
 Node,1335,F4 SE APARTMENT OUTSIDE AIR INLET,Air,2
 Node,1336,F4 NE APARTMENT OUTSIDE AIR INLET,Air,2
 Node,1337,F4 N1 APARTMENT OUTSIDE AIR INLET,Air,2
 Node,1338,F4 N2 APARTMENT OUTSIDE AIR INLET,Air,2
 Node,1339,F4 S1 APARTMENT OUTSIDE AIR INLET,Air,2
 Node,1340,F4 S2 APARTMENT OUTSIDE AIR INLET,Air,2
 Node,1341,M SW APARTMENT OUTSIDE AIR INLET,Air,2
 Node,1342,M NW APARTMENT OUTSIDE AIR INLET,Air,2
 Node,1343,M SE APARTMENT OUTSIDE AIR INLET,Air,2
 Node,1344,M NE APARTMENT OUTSIDE AIR INLET,Air,2
 Node,1345,M N1 APARTMENT OUTSIDE AIR INLET,Air,2
 Node,1346,M N2 APARTMENT OUTSIDE AIR INLET,Air,2
 Node,1347,M S1 APARTMENT OUTSIDE AIR INLET,Air,2
 Node,1348,M S2 APARTMENT OUTSIDE AIR INLET,Air,2
 Node,1349,F6 SW APARTMENT OUTSIDE AIR INLET,Air,2
 Node,1350,F6 NW APARTMENT OUTSIDE AIR INLET,Air,2
 Node,1351,F6 SE APARTMENT OUTSIDE AIR INLET,Air,2
 Node,1352,F6 NE APARTMENT OUTSIDE AIR INLET,Air,2
 Node,1353,F6 N1 APARTMENT OUTSIDE AIR INLET,Air,2
 Node,1354,F6 N2 APARTMENT OUTSIDE AIR INLET,Air,2
 Node,1355,F6 S1 APARTMENT OUTSIDE AIR INLET,Air,2
 Node,1356,F6 S2 APARTMENT OUTSIDE AIR INLET,Air,2
 Node,1357,F7 SW APARTMENT OUTSIDE AIR INLET,Air,2
 Node,1358,F7 NW APARTMENT OUTSIDE AIR INLET,Air,2
 Node,1359,F7 SE APARTMENT OUTSIDE AIR INLET,Air,2
 Node,1360,F7 NE APARTMENT OUTSIDE AIR INLET,Air,2
 Node,1361,F7 N1 APARTMENT OUTSIDE AIR INLET,Air,2
[...]
 Non-Parent Node Connection,HEATING COIL AIR OUTLET NODE AIRLOOP F7 NE,COIL:HEATING:ELECTRIC,HEAT PUMP DX SUPP HEATING COIL AIRLOOP F7 NE,Inlet,1
 Non-Parent Node Connection,AIRLOOP F7 NE SUPPLY AIR OUTLET,COIL:HEATING:ELECTRIC,HEAT PUMP DX SUPP HEATING COIL AIRLOOP F7 NE,Outlet,1
 Non-Parent Node Connection,HEATING COIL AIR OUTLET NODE AIRLOOP F7 N1,COIL:HEATING:ELECTRIC,HEAT PUMP DX SUPP HEATING COIL AIRLOOP F7 N1,Inlet,1
 Non-Parent Node Connection,AIRLOOP F7 N1 SUPPLY AIR OUTLET,COIL:HEATING:ELECTRIC,HEAT PUMP DX SUPP HEATING COIL AIRLOOP F7 N1,Outlet,1
 Non-Parent Node Connection,HEATING COIL AIR OUTLET NODE AIRLOOP F7 N2,COIL:HEATING:ELECTRIC,HEAT PUMP DX SUPP HEATING COIL AIRLOOP F7 N2,Inlet,1
 Non-Parent Node Connection,AIRLOOP F7 N2 SUPPLY AIR OUTLET,COIL:HEATING:ELECTRIC,HEAT PUMP DX SUPP HEATING COIL AIRLOOP F7 N2,Outlet,1
 Non-Parent Node Connection,HEATING COIL AIR OUTLET NODE AIRLOOP F7 S1,COIL:HEATING:ELECTRIC,HEAT PUMP DX SUPP HEATING COIL AIRLOOP F7 S1,Inlet,1
 Non-Parent Node Connection,AIRLOOP F7 S1 SUPPLY AIR OUTLET,COIL:HEATING:ELECTRIC,HEAT PUMP DX SUPP HEATING COIL AIRLOOP F7 S1,Outlet,1
 Non-Parent Node Connection,HEATING COIL AIR OUTLET NODE AIRLOOP F7 S2,COIL:HEATING:ELECTRIC,HEAT PUMP DX SUPP HEATING COIL AIRLOOP F7 S2,Inlet,1
 Non-Parent Node Connection,AIRLOOP F7 S2 SUPPLY AIR OUTLET,COIL:HEATING:ELECTRIC,HEAT PUMP DX SUPP HEATING COIL AIRLOOP F7 S2,Outlet,1
 Non-Parent Node Connection,HEATING COIL AIR OUTLET NODE AIRLOOP F8 SW,COIL:HEATING:ELECTRIC,HEAT PUMP DX SUPP HEATING COIL AIRLOOP F8 SW,Inlet,1
 Non-Parent Node Connection,AIRLOOP F8 SW SUPPLY AIR OUTLET,COIL:HEATING:ELECTRIC,HEAT PUMP DX SUPP HEATING COIL AIRLOOP F8 SW,Outlet,1
 Non-Parent Node Connection,HEATING COIL AIR OUTLET NODE AIRLOOP F8 NW,COIL:HEATING:ELECTRIC,HEAT PUMP DX SUPP HEATING COIL AIRLOOP F8 NW,Inlet,1
 Non-Parent Node Connection,AIRLOOP F8 NW SUPPLY AIR OUTLET,COIL:HEATING:ELECTRIC,HEAT PUMP DX SUPP HEATING COIL AIRLOOP F8 NW,Outlet,1
 Non-Parent Node Connection,HEATING COIL AIR OUTLET NODE AIRLOOP F8 SE,COIL:HEATING:ELECTRIC,HEAT PUMP DX SUPP HEATING COIL AIRLOOP F8 SE,Inlet,1
 Non-Parent Node Connection,AIRLOOP F8 SE SUPPLY AIR OUTLET,COIL:HEATING:ELECTRIC,HEAT PUMP DX SUPP HEATING COIL AIRLOOP F8 SE,Outlet,1
 Non-Parent Node Connection,HEATING COIL AIR OUTLET NODE AIRLOOP F8 NE,COIL:HEATING:ELECTRIC,HEAT PUMP DX SUPP HEATING COIL AIRLOOP F8 NE,Inlet,1
 Non-Parent Node Connection,AIRLOOP F8 NE SUPPLY AIR OUTLET,COIL:HEATING:ELECTRIC,HEAT PUMP DX SUPP HEATING COIL AIRLOOP F8 NE,Outlet,1
 Non-Parent Node Connection,HEATING COIL AIR OUTLET NODE AIRLOOP F8 N1,COIL:HEATING:ELECTRIC,HEAT PUMP DX SUPP HEATING COIL AIRLOOP F8 N1,Inlet,1
 Non-Parent Node Connection,AIRLOOP F8 N1 SUPPLY AIR OUTLET,COIL:HEATING:ELECTRIC,HEAT PUMP DX SUPP HEATING COIL AIRLOOP F8 N1,Outlet,1
 Non-Parent Node Connection,HEATING COIL AIR OUTLET NODE AIRLOOP F8 N2,COIL:HEATING:ELECTRIC,HEAT PUMP DX SUPP HEATING COIL AIRLOOP F8 N2,Inlet,1
 Non-Parent Node Connection,AIRLOOP F8 N2 SUPPLY AIR OUTLET,COIL:HEATING:ELECTRIC,HEAT PUMP DX SUPP HEATING COIL AIRLOOP F8 N2,Outlet,1
 Non-Parent Node Connection,HEATING COIL AIR OUTLET NODE AIRLOOP F8 S1,COIL:HEATING:ELECTRIC,HEAT PUMP DX SUPP HEATING COIL AIRLOOP F8 S1,Inlet,1
 Non-Parent Node Connection,AIRLOOP F8 S1 SUPPLY AIR OUTLET,COIL:HEATING:ELECTRIC,HEAT PUMP DX SUPP HEATING COIL AIRLOOP F8 S1,Outlet,1
 Non-Parent Node Connection,HEATING COIL AIR OUTLET NODE AIRLOOP F8 S2,COIL:HEATING:ELECTRIC,HEAT PUMP DX SUPP HEATING COIL AIRLOOP F8 S2,Inlet,1
 Non-Parent Node Connection,AIRLOOP F8 S2 SUPPLY AIR OUTLET,COIL:HEATING:ELECTRIC,HEAT PUMP DX SUPP HEATING COIL AIRLOOP F8 S2,Outlet,1
 Non-Parent Node Connection,HEATING COIL AIR OUTLET NODE AIRLOOP F9 SW,COIL:HEATING:ELECTRIC,HEAT PUMP DX SUPP HEATING COIL AIRLOOP F9 SW,Inlet,1
 Non-Parent Node Connection,AIRLOOP F9 SW SUPPLY AIR OUTLET,COIL:HEATING:ELECTRIC,HEAT PUMP DX SUPP HEATING COIL AIRLOOP F9 SW,Outlet,1
 Non-Parent Node Connection,HEATING COIL AIR OUTLET NODE AIRLOOP F9 NW,COIL:HEATING:ELECTRIC,HEAT PUMP DX SUPP HEATING COIL AIRLOOP F9 NW,Inlet,1
 Non-Parent Node Connection,AIRLOOP F9 NW SUPPLY AIR OUTLET,COIL:HEATING:ELECTRIC,HEAT PUMP DX SUPP HEATING COIL AIRLOOP F9 NW,Outlet,1
 Non-Parent Node Connection,HEATING COIL AIR OUTLET NODE AIRLOOP F9 SE,COIL:HEATING:ELECTRIC,HEAT PUMP DX SUPP HEATING COIL AIRLOOP F9 SE,Inlet,1
 Non-Parent Node Connection,AIRLOOP F9 SE SUPPLY AIR OUTLET,COIL:HEATING:ELECTRIC,HEAT PUMP DX SUPP HEATING COIL AIRLOOP F9 SE,Outlet,1
 Non-Parent Node Connection,HEATING COIL AIR OUTLET NODE AIRLOOP F9 NE,COIL:HEATING:ELECTRIC,HEAT PUMP DX SUPP HEATING COIL AIRLOOP F9 NE,Inlet,1
 Non-Parent Node Connection,AIRLOOP F9 NE SUPPLY AIR OUTLET,COIL:HEATING:ELECTRIC,HEAT PUMP DX SUPP HEATING COIL AIRLOOP F9 NE,Outlet,1
 Non-Parent Node Connection,HEATING COIL AIR OUTLET NODE AIRLOOP F9 N1,COIL:HEATING:ELECTRIC,HEAT PUMP DX SUPP HEATING COIL AIRLOOP F9 N1,Inlet,1
 Non-Parent Node Connection,AIRLOOP F9 N1 SUPPLY AIR OUTLET,COIL:HEATING:ELECTRIC,HEAT PUMP DX SUPP HEATING COIL AIRLOOP F9 N1,Outlet,1
 Non-Parent Node Connection,HEATING COIL AIR OUTLET NODE AIRLOOP F9 N2,COIL:HEATING:ELECTRIC,HEAT PUMP DX SUPP HEATING COIL AIRLOOP F9 N2,Inlet,1
 Non-Parent Node Connection,AIRLOOP F9 N2 SUPPLY AIR OUTLET,COIL:HEATING:ELECTRIC,HEAT PUMP DX SUPP HEATING COIL AIRLOOP F9 N2,Outlet,1
 Non-Parent Node Connection,HEATING COIL AIR OUTLET NODE AIRLOOP F9 S1,COIL:HEATING:ELECTRIC,HEAT PUMP DX SUPP HEATING COIL AIRLOOP F9 S1,Inlet,1
 Non-Parent Node Connection,AIRLOOP F9 S1 SUPPLY AIR OUTLET,COIL:HEATING:ELECTRIC,HEAT PUMP DX SUPP HEATING COIL AIRLOOP F9 S1,Outlet,1
 Non-Parent Node Connection,HEATING COIL AIR OUTLET NODE AIRLOOP F9 S2,COIL:HEATING:ELECTRIC,HEAT PUMP DX SUPP HEATING COIL AIRLOOP F9 S2,Inlet,1
 Non-Parent Node Connection,AIRLOOP F9 S2 SUPPLY AIR OUTLET,COIL:HEATING:ELECTRIC,HEAT PUMP DX SUPP HEATING COIL AIRLOOP F9 S2,Outlet,1
 Non-Parent Node Connection,HEATING COIL AIR OUTLET NODE AIRLOOP T SW,COIL:HEATING:ELECTRIC,HEAT PUMP DX SUPP HEATING COIL AIRLOOP T SW,Inlet,1
 Non-Parent Node Connection,AIRLOOP T SW SUPPLY AIR OUTLET,COIL:HEATING:ELECTRIC,HEAT PUMP DX SUPP HEATING COIL AIRLOOP T SW,Outlet,1
 Non-Parent Node Connection,HEATING COIL AIR OUTLET NODE AIRLOOP T NW,COIL:HEATING:ELECTRIC,HEAT PUMP DX SUPP HEATING COIL AIRLOOP T NW,Inlet,1
 Non-Parent Node Connection,AIRLOOP T NW SUPPLY AIR OUTLET,COIL:HEATING:ELECTRIC,HEAT PUMP DX SUPP HEATING COIL AIRLOOP T NW,Outlet,1
 Non-Parent Node Connection,HEATING COIL AIR OUTLET NODE AIRLOOP T SE,COIL:HEATING:ELECTRIC,HEAT PUMP DX SUPP HEATING COIL AIRLOOP T SE,Inlet,1
 Non-Parent Node Connection,AIRLOOP T SE SUPPLY AIR OUTLET,COIL:HEATING:ELECTRIC,HEAT PUMP DX SUPP HEATING COIL AIRLOOP T SE,Outlet,1
 Non-Parent Node Connection,HEATING COIL AIR OUTLET NODE AIRLOOP T NE,COIL:HEATING:ELECTRIC,HEAT PUMP DX SUPP HEATING COIL AIRLOOP T NE,Inlet,1
 Non-Parent Node Connection,AIRLOOP T NE SUPPLY AIR OUTLET,COIL:HEATING:ELECTRIC,HEAT PUMP DX SUPP HEATING COIL AIRLOOP T NE,Outlet,1
 Non-Parent Node Connection,HEATING COIL AIR OUTLET NODE AIRLOOP T N1,COIL:HEATING:ELECTRIC,HEAT PUMP DX SUPP HEATING COIL AIRLOOP T N1,Inlet,1
 Non-Parent Node Connection,AIRLOOP T N1 SUPPLY AIR OUTLET,COIL:HEATING:ELECTRIC,HEAT PUMP DX SUPP HEATING COIL AIRLOOP T N1,Outlet,1
 Non-Parent Node Connection,HEATING COIL AIR OUTLET NODE AIRLOOP T N2,COIL:HEATING:ELECTRIC,HEAT PUMP DX SUPP HEATING COIL AIRLOOP T N2,Inlet,1
 Non-Parent Node Connection,AIRLOOP T N2 SUPPLY AIR OUTLET,COIL:HEATING:ELECTRIC,HEAT PUMP DX SUPP HEATING COIL AIRLOOP T N2,Outlet,1
 Non-Parent Node Connection,HEATING COIL AIR OUTLET NODE AIRLOOP T S1,COIL:HEATING:ELECTRIC,HEAT PUMP DX SUPP HEATING COIL AIRLOOP T S1,Inlet,1
 Non-Parent Node Connection,AIRLOOP T S1 SUPPLY AIR OUTLET,COIL:HEATING:ELECTRIC,HEAT PUMP DX SUPP HEATING COIL AIRLOOP T S1,Outlet,1
 Non-Parent Node Connection,HEATING COIL AIR OUTLET NODE AIRLOOP T S2,COIL:HEATING:ELECTRIC,HEAT PUMP DX SUPP HEATING COIL AIRLOOP T S2,Inlet,1
 Non-Parent Node Connection,AIRLOOP T S2 SUPPLY AIR OUTLET,COIL:HEATING:ELECTRIC,HEAT PUMP DX SUPP HEATING COIL AIRLOOP T S2,Outlet,1
 Non-Parent Node Connection,COMMON OSA INLET NODE,AIRLOOPHVAC:UNITARYHEATPUMP:WATERTOAIR,AIRLOOP G SW DXAC HEAT PUMP,OutsideAirReference,1
 Non-Parent Node Connection,COMMON OSA INLET NODE,AIRLOOPHVAC:UNITARYHEATPUMP:WATERTOAIR,AIRLOOP G NW DXAC HEAT PUMP,OutsideAirReference,1
 Non-Parent Node Connection,COMMON OSA INLET NODE,AIRLOOPHVAC:UNITARYHEATPUMP:WATERTOAIR,AIRLOOP OFFICE DXAC HEAT PUMP,OutsideAirReference,1
 Non-Parent Node Connection,COMMON OSA INLET NODE,AIRLOOPHVAC:UNITARYHEATPUMP:WATERTOAIR,AIRLOOP G NE DXAC HEAT PUMP,OutsideAirReference,1
 Non-Parent Node Connection,COMMON OSA INLET NODE,AIRLOOPHVAC:UNITARYHEATPUMP:WATERTOAIR,AIRLOOP G N1 DXAC HEAT PUMP,OutsideAirReference,1
 Non-Parent Node Connection,COMMON OSA INLET NODE,AIRLOOPHVAC:UNITARYHEATPUMP:WATERTOAIR,AIRLOOP G N2 DXAC HEAT PUMP,OutsideAirReference,1
 Non-Parent Node Connection,COMMON OSA INLET NODE,AIRLOOPHVAC:UNITARYHEATPUMP:WATERTOAIR,AIRLOOP G S1 DXAC HEAT PUMP,OutsideAirReference,1
 Non-Parent Node Connection,COMMON OSA INLET NODE,AIRLOOPHVAC:UNITARYHEATPUMP:WATERTOAIR,AIRLOOP G S2 DXAC HEAT PUMP,OutsideAirReference,1
 Non-Parent Node Connection,COMMON OSA INLET NODE,AIRLOOPHVAC:UNITARYHEATPUMP:WATERTOAIR,AIRLOOP F2 SW DXAC HEAT PUMP,OutsideAirReference,1
 Non-Parent Node Connection,COMMON OSA INLET NODE,AIRLOOPHVAC:UNITARYHEATPUMP:WATERTOAIR,AIRLOOP F2 NW DXAC HEAT PUMP,OutsideAirReference,1
 Non-Parent Node Connection,COMMON OSA INLET NODE,AIRLOOPHVAC:UNITARYHEATPUMP:WATERTOAIR,AIRLOOP F2 SE DXAC HEAT PUMP,OutsideAirReference,1
 Non-Parent Node Connection,COMMON OSA INLET NODE,AIRLOOPHVAC:UNITARYHEATPUMP:WATERTOAIR,AIRLOOP F2 NE DXAC HEAT PUMP,OutsideAirReference,1
 Non-Parent Node Connection,COMMON OSA INLET NODE,AIRLOOPHVAC:UNITARYHEATPUMP:WATERTOAIR,AIRLOOP F2 N1 DXAC HEAT PUMP,OutsideAirReference,1
 Non-Parent Node Connection,COMMON OSA INLET NODE,AIRLOOPHVAC:UNITARYHEATPUMP:WATERTOAIR,AIRLOOP F2 N2 DXAC HEAT PUMP,OutsideAirReference,1
 Non-Parent Node Connection,COMMON OSA INLET NODE,AIRLOOPHVAC:UNITARYHEATPUMP:WATERTOAIR,AIRLOOP F2 S1 DXAC HEAT PUMP,OutsideAirReference,1
 Non-Parent Node Connection,COMMON OSA INLET NODE,AIRLOOPHVAC:UNITARYHEATPUMP:WATERTOAIR,AIRLOOP F2 S2 DXAC HEAT PUMP,OutsideAirReference,1
 Non-Parent Node Connection,COMMON OSA INLET NODE,AIRLOOPHVAC:UNITARYHEATPUMP:WATERTOAIR,AIRLOOP F3 SW DXAC HEAT PUMP,OutsideAirReference,1
 Non-Parent Node Connection,COMMON OSA INLET NODE,AIRLOOPHVAC:UNITARYHEATPUMP:WATERTOAIR,AIRLOOP F3 NW DXAC HEAT PUMP,OutsideAirReference,1
 Non-Parent Node Connection,COMMON OSA INLET NODE,AIRLOOPHVAC:UNITARYHEATPUMP:WATERTOAIR,AIRLOOP F3 SE DXAC HEAT PUMP,OutsideAirReference,1
 Non-Parent Node Connection,COMMON OSA INLET NODE,AIRLOOPHVAC:UNITARYHEATPUMP:WATERTOAIR,AIRLOOP F3 NE DXAC HEAT PUMP,OutsideAirReference,1
 Non-Parent Node Connection,COMMON OSA INLET NODE,AIRLOOPHVAC:UNITARYHEATPUMP:WATERTOAIR,AIRLOOP F3 N1 DXAC HEAT PUMP,OutsideAirReference,1
 Non-Parent Node Connection,COMMON OSA INLET NODE,AIRLOOPHVAC:UNITARYHEATPUMP:WATERTOAIR,AIRLOOP F3 N2 DXAC HEAT PUMP,OutsideAirReference,1
 Non-Parent Node Connection,COMMON OSA INLET NODE,AIRLOOPHVAC:UNITARYHEATPUMP:WATERTOAIR,AIRLOOP F3 S1 DXAC HEAT PUMP,OutsideAirReference,1
 Non-Parent Node Connection,COMMON OSA INLET NODE,AIRLOOPHVAC:UNITARYHEATPUMP:WATERTOAIR,AIRLOOP F3 S2 DXAC HEAT PUMP,OutsideAirReference,1
 Non-Parent Node Connection,COMMON OSA INLET NODE,AIRLOOPHVAC:UNITARYHEATPUMP:WATERTOAIR,AIRLOOP F4 SW DXAC HEAT PUMP,OutsideAirReference,1
 Non-Parent Node Connection,COMMON OSA INLET NODE,AIRLOOPHVAC:UNITARYHEATPUMP:WATERTOAIR,AIRLOOP F4 NW DXAC HEAT PUMP,OutsideAirReference,1
 Non-Parent Node Connection,COMMON OSA INLET NODE,AIRLOOPHVAC:UNITARYHEATPUMP:WATERTOAIR,AIRLOOP F4 SE DXAC HEAT PUMP,OutsideAirReference,1
 Non-Parent Node Connection,COMMON OSA INLET NODE,AIRLOOPHVAC:UNITARYHEATPUMP:WATERTOAIR,AIRLOOP F4 NE DXAC HEAT PUMP,OutsideAirReference,1
 Non-Parent Node Connection,COMMON OSA INLET NODE,AIRLOOPHVAC:UNITARYHEATPUMP:WATERTOAIR,AIRLOOP F4 N1 DXAC HEAT PUMP,OutsideAirReference,1
 Non-Parent Node Connection,COMMON OSA INLET NODE,AIRLOOPHVAC:UNITARYHEATPUMP:WATERTOAIR,AIRLOOP F4 N2 DXAC HEAT PUMP,OutsideAirReference,1
 Non-Parent Node Connection,COMMON OSA INLET NODE,AIRLOOPHVAC:UNITARYHEATPUMP:WATERTOAIR,AIRLOOP F4 S1 DXAC HEAT PUMP,OutsideAirReference,1
 Non-Parent Node Connection,COMMON OSA INLET NODE,AIRLOOPHVAC:UNITARYHEATPUMP:WATERTOAIR,AIRLOOP F4 S2 DXAC HEAT PUMP,OutsideAirReference,1
 Non-Parent Node Connection,COMMON OSA INLET NODE,AIRLOOPHVAC:UNITARYHEATPUMP:WATERTOAIR,AIRLOOP M SW DXAC HEAT PUMP,OutsideAirReference,1
 Non-Parent Node Connection,COMMON OSA INLET NODE,AIRLOOPHVAC:UNITARYHEATPUMP:WATERTOAIR,AIRLOOP M NW DXAC HEAT PUMP,OutsideAirReference,1
 Non-Parent Node Connection,COMMON OSA INLET NODE,AIRLOOPHVAC:UNITARYHEATPUMP:WATERTOAIR,AIRLOOP M SE DXAC HEAT PUMP,OutsideAirReference,1
 Non-Parent Node Connection,COMMON OSA INLET NODE,AIRLOOPHVAC:UNITARYHEATPUMP:WATERTOAIR,AIRLOOP M NE DXAC HEAT PUMP,OutsideAirReference,1
 Non-Parent Node Connection,COMMON OSA INLET NODE,AIRLOOPHVAC:UNITARYHEATPUMP:WATERTOAIR,AIRLOOP M N1 DXAC HEAT PUMP,OutsideAirReference,1
 Non-Parent Node Connection,COMMON OSA INLET NODE,AIRLOOPHVAC:UNITARYHEATPUMP:WATERTOAIR,AIRLOOP M N2 DXAC HEAT PUMP,OutsideAirReference,1
 Non-Parent Node Connection,COMMON OSA INLET NODE,AIRLOOPHVAC:UNITARYHEATPUMP:WATERTOAIR,AIRLOOP M S1 DXAC HEAT PUMP,OutsideAirReference,1
 Non-Parent Node Connection,COMMON OSA INLET NODE,AIRLOOPHVAC:UNITARYHEATPUMP:WATERTOAIR,AIRLOOP M S2 DXAC HEAT PUMP,OutsideAirReference,1
 Non-Parent Node Connection,COMMON OSA INLET NODE,AIRLOOPHVAC:UNITARYHEATPUMP:WATERTOAIR,AIRLOOP F6 SW DXAC HEAT PUMP,OutsideAirReference,1
 Non-Parent Node Connection,COMMON OSA INLET NODE,AIRLOOPHVAC:UNITARYHEATPUMP:WATERTOAIR,AIRLOOP F6 NW DXAC HEAT PUMP,OutsideAirReference,1
 Non-Parent Node Connection,COMMON OSA INLET NODE,AIRLOOPHVAC:UNITARYHEATPUMP:WATERTOAIR,AIRLOOP F6 SE DXAC HEAT PUMP,OutsideAirReference,1
 Non-Parent Node Connection,COMMON OSA INLET NODE,AIRLOOPHVAC:UNITARYHEATPUMP:WATERTOAIR,AIRLOOP F6 NE DXAC HEAT PUMP,OutsideAirReference,1
 Non-Parent Node Connection,COMMON OSA INLET NODE,AIRLOOPHVAC:UNITARYHEATPUMP:WATERTOAIR,AIRLOOP F6 N1 DXAC HEAT PUMP,OutsideAirReference,1
 Non-Parent Node Connection,COMMON OSA INLET NODE,AIRLOOPHVAC:UNITARYHEATPUMP:WATERTOAIR,AIRLOOP F6 N2 DXAC HEAT PUMP,OutsideAirReference,1
 Non-Parent Node Connection,COMMON OSA INLET NODE,AIRLOOPHVAC:UNITARYHEATPUMP:WATERTOAIR,AIRLOOP F6 S1 DXAC HEAT PUMP,OutsideAirReference,1
 Non-Parent Node Connection,COMMON OSA INLET NODE,AIRLOOPHVAC:UNITARYHEATPUMP:WATERTOAIR,AIRLOOP F6 S2 DXAC HEAT PUMP,OutsideAirReference,1
 Non-Parent Node Connection,COMMON OSA INLET NODE,AIRLOOPHVAC:UNITARYHEATPUMP:WATERTOAIR,AIRLOOP F7 SW DXAC HEAT PUMP,OutsideAirReference,1
 Non-Parent Node Connection,COMMON OSA INLET NODE,AIRLOOPHVAC:UNITARYHEATPUMP:WATERTOAIR,AIRLOOP F7 NW DXAC HEAT PUMP,OutsideAirReference,1
 Non-Parent Node Connection,COMMON OSA INLET NODE,AIRLOOPHVAC:UNITARYHEATPUMP:WATERTOAIR,AIRLOOP F7 SE DXAC HEAT PUMP,OutsideAirReference,1
 Non-Parent Node Connection,COMMON OSA INLET NODE,AIRLOOPHVAC:UNITARYHEATPUMP:WATERTOAIR,AIRLOOP F7 NE DXAC HEAT PUMP,OutsideAirReference,1
 Non-Parent Node Connection,COMMON OSA INLET NODE,AIRLOOPHVAC:UNITARYHEATPUMP:WATERTOAIR,AIRLOOP F7 N1 DXAC HEAT PUMP,OutsideAirReference,1
 Non-Parent Node Connection,COMMON OSA INLET NODE,AIRLOOPHVAC:UNITARYHEATPUMP:WATERTOAIR,AIRLOOP F7 N2 DXAC HEAT PUMP,OutsideAirReference,1
 Non-Parent Node Connection,COMMON OSA INLET NODE,AIRLOOPHVAC:UNITARYHEATPUMP:WATERTOAIR,AIRLOOP F7 S1 DXAC HEAT PUMP,OutsideAirReference,1
 Non-Parent Node Connection,COMMON OSA INLET NODE,AIRLOOPHVAC:UNITARYHEATPUMP:WATERTOAIR,AIRLOOP F7 S2 DXAC HEAT PUMP,OutsideAirReference,1
 Non-Parent Node Connection,COMMON OSA INLET NODE,AIRLOOPHVAC:UNITARYHEATPUMP:WATERTOAIR,AIRLOOP F8 SW DXAC HEAT PUMP,OutsideAirReference,1
 Non-Parent Node Connection,COMMON OSA INLET NODE,AIRLOOPHVAC:UNITARYHEATPUMP:WATERTOAIR,AIRLOOP F8 NW DXAC HEAT PUMP,OutsideAirReference,1
 Non-Parent Node Connection,COMMON OSA INLET NODE,AIRLOOPHVAC:UNITARYHEATPUMP:WATERTOAIR,AIRLOOP F8 SE DXAC HEAT PUMP,OutsideAirReference,1
 Non-Parent Node Connection,COMMON OSA INLET NODE,AIRLOOPHVAC:UNITARYHEATPUMP:WATERTOAIR,AIRLOOP F8 NE DXAC HEAT PUMP,OutsideAirReference,1
 Non-Parent Node Connection,COMMON OSA INLET NODE,AIRLOOPHVAC:UNITARYHEATPUMP:WATERTOAIR,AIRLOOP F8 N1 DXAC HEAT PUMP,OutsideAirReference,1
 Non-Parent Node Connection,COMMON OSA INLET NODE,AIRLOOPHVAC:UNITARYHEATPUMP:WATERTOAIR,AIRLOOP F8 N2 DXAC HEAT PUMP,OutsideAirReference,1
 Non-Parent Node Connection,COMMON OSA INLET NODE,AIRLOOPHVAC:UNITARYHEATPUMP:WATERTOAIR,AIRLOOP F8 S1 DXAC HEAT PUMP,OutsideAirReference,1
 Non-Parent Node Connection,COMMON OSA INLET NODE,AIRLOOPHVAC:UNITARYHEATPUMP:WATERTOAIR,AIRLOOP F8 S2 DXAC HEAT PUMP,OutsideAirReference,1
 Non-Parent Node Connection,COMMON OSA INLET NODE,AIRLOOPHVAC:UNITARYHEATPUMP:WATERTOAIR,AIRLOOP F9 SW DXAC HEAT PUMP,OutsideAirReference,1
 Non-Parent Node Connection,COMMON OSA INLET NODE,AIRLOOPHVAC:UNITARYHEATPUMP:WATERTOAIR,AIRLOOP F9 NW DXAC HEAT PUMP,OutsideAirReference,1
 Non-Parent Node Connection,COMMON OSA INLET NODE,AIRLOOPHVAC:UNITARYHEATPUMP:WATERTOAIR,AIRLOOP F9 SE DXAC HEAT PUMP,OutsideAirReference,1
 Non-Parent Node Connection,COMMON OSA INLET NODE,AIRLOOPHVAC:UNITARYHEATPUMP:WATERTOAIR,AIRLOOP F9 NE DXAC HEAT PUMP,OutsideAirReference,1
 Non-Parent Node Connection,COMMON OSA INLET NODE,AIRLOOPHVAC:UNITARYHEATPUMP:WATERTOAIR,AIRLOOP F9 N1 DXAC HEAT PUMP,OutsideAirReference,1
 Non-Parent Node Connection,COMMON OSA INLET NODE,AIRLOOPHVAC:UNITARYHEATPUMP:WATERTOAIR,AIRLOOP F9 N2 DXAC HEAT PUMP,OutsideAirReference,1
 Non-Parent Node Connection,COMMON OSA INLET NODE,AIRLOOPHVAC:UNITARYHEATPUMP:WATERTOAIR,AIRLOOP F9 S1 DXAC HEAT PUMP,OutsideAirReference,1
 Non-Parent Node Connection,COMMON OSA INLET NODE,AIRLOOPHVAC:UNITARYHEATPUMP:WATERTOAIR,AIRLOOP F9 S2 DXAC HEAT PUMP,OutsideAirReference,1
 Non-Parent Node Connection,COMMON OSA INLET NODE,AIRLOOPHVAC:UNITARYHEATPUMP:WATERTOAIR,AIRLOOP T SW DXAC HEAT PUMP,OutsideAirReference,1
 Non-Parent Node Connection,COMMON OSA INLET NODE,AIRLOOPHVAC:UNITARYHEATPUMP:WATERTOAIR,AIRLOOP T NW DXAC HEAT PUMP,OutsideAirReference,1
 Non-Parent Node Connection,COMMON OSA INLET NODE,AIRLOOPHVAC:UNITARYHEATPUMP:WATERTOAIR,AIRLOOP T SE DXAC HEAT PUMP,OutsideAirReference,1
 Non-Parent Node Connection,COMMON OSA INLET NODE,AIRLOOPHVAC:UNITARYHEATPUMP:WATERTOAIR,AIRLOOP T NE DXAC HEAT PUMP,OutsideAirReference,1
 Non-Parent Node Connection,COMMON OSA INLET NODE,AIRLOOPHVAC:UNITARYHEATPUMP:WATERTOAIR,AIRLOOP T N1 DXAC HEAT PUMP,OutsideAirReference,1
 Non-Parent Node Connection,COMMON OSA INLET NODE,AIRLOOPHVAC:UNITARYHEATPUMP:WATERTOAIR,AIRLOOP T N2 DXAC HEAT PUMP,OutsideAirReference,1
 Non-Parent Node Connection,COMMON OSA INLET NODE,AIRLOOPHVAC:UNITARYHEATPUMP:WATERTOAIR,AIRLOOP T S1 DXAC HEAT PUMP,OutsideAirReference,1
 Non-Parent Node Connection,COMMON OSA INLET NODE,AIRLOOPHVAC:UNITARYHEATPUMP:WATERTOAIR,AIRLOOP T S2 DXAC HEAT PUMP,OutsideAirReference,1
 Non-Parent Node Connection,SHWSYS1 SUPPLY INLET NODE,PUMP:CONSTANTSPEED,SHWSYS1 PUMP,Inlet,1
 Non-Parent Node Connection,SHWSYS1 PUMP-SHWSYS1 WATER HEATERNODEVIACONNECTOR,PUMP:CONSTANTSPEED,SHWSYS1 PUMP,Outlet,1
 Non-Parent Node Connection,PLANT SUPPLY INLET NODE,PUMP:CONSTANTSPEED,PLANT CIRC PUMP,Inlet,1
 Non-Parent Node Connection,PLANT PUMP OUTLET NODE,PUMP:CONSTANTSPEED,PLANT CIRC PUMP,Outlet,1
