Program Version,EnergyPlus, Version 26.1.0-6f2e40d102, YMD=2026.06.09 15:14
! <Version>, Version ID
 Version, 26.1
! <Timesteps per Hour>, #TimeSteps, Minutes per TimeStep {minutes}
 Timesteps per Hour,  4, 15
! <System Convergence Limits>, Minimum System TimeStep {minutes}, Max HVAC Iterations, Minimum Plant Iterations, Maximum Plant Iterations
 System Convergence Limits, 15, 5, 2, 8
! <Simulation Control>, Do Zone Sizing, Do System Sizing, Do Plant Sizing, Do Design Days, Do Weather Simulation, Do HVAC Sizing Simulation
 Simulation Control, Yes, Yes, Yes, No, Yes, No
! <Performance Precision Tradeoffs>, Use Coil Direct Simulation, Zone Radiant Exchange Algorithm, Override Mode, Number of Timestep In Hour, Force Euler Method, Minimum Number of Warmup Days, Force Suppress All Begin Environment Resets, Minimum System Timestep, MaxZoneTempDiff, MaxAllowedDelTemp
 Performance Precision Tradeoffs, No, ScriptF, Normal, 4, No, 1, No, 15.0, 0.300, 2.0000E-003
! <Output Reporting Tolerances>, Tolerance for Time Heating Setpoint Not Met, Tolerance for Zone Cooling Setpoint Not Met Time
 Output Reporting Tolerances, 0.556, 0.556, 
! <Site:GroundTemperature:BuildingSurface>,Jan{C},Feb{C},Mar{C},Apr{C},May{C},Jun{C},Jul{C},Aug{C},Sep{C},Oct{C},Nov{C},Dec{C}
 Site:GroundTemperature:BuildingSurface,  18.00,  18.00,  18.00,  18.00,  18.00,  18.00,  18.00,  18.00,  18.00,  18.00,  18.00,  18.00
! <Site:GroundTemperature:FCfactorMethod>,Jan{C},Feb{C},Mar{C},Apr{C},May{C},Jun{C},Jul{C},Aug{C},Sep{C},Oct{C},Nov{C},Dec{C}
 Site:GroundTemperature:FCfactorMethod,   7.10,   3.00,  -1.00,   0.80,  -0.20,   4.80,   6.10,  13.70,  22.20,  22.70,  21.70,  18.50
! <Site:GroundTemperature:Shallow>,Jan{C},Feb{C},Mar{C},Apr{C},May{C},Jun{C},Jul{C},Aug{C},Sep{C},Oct{C},Nov{C},Dec{C}
 Site:GroundTemperature:Shallow,  13.00,  13.00,  13.00,  13.00,  13.00,  13.00,  13.00,  13.00,  13.00,  13.00,  13.00,  13.00
! <Site:GroundTemperature:Deep>,Jan{C},Feb{C},Mar{C},Apr{C},May{C},Jun{C},Jul{C},Aug{C},Sep{C},Oct{C},Nov{C},Dec{C}
 Site:GroundTemperature:Deep,  16.00,  16.00,  16.00,  16.00,  16.00,  16.00,  16.00,  16.00,  16.00,  16.00,  16.00,  16.00
! <Site:GroundReflectance>,Jan{dimensionless},Feb{dimensionless},Mar{dimensionless},Apr{dimensionless},May{dimensionless},Jun{dimensionless},Jul{dimensionless},Aug{dimensionless},Sep{dimensionless},Oct{dimensionless},Nov{dimensionless},Dec{dimensionless}
 Site:GroundReflectance,  0.20,  0.20,  0.20,  0.20,  0.20,  0.20,  0.20,  0.20,  0.20,  0.20,  0.20,  0.20
! <Site:GroundReflectance:SnowModifier>, Normal, Daylighting {dimensionless}
 Site:GroundReflectance:SnowModifier,   1.000,   1.000
! <Site:GroundReflectance:Snow>,Jan{dimensionless},Feb{dimensionless},Mar{dimensionless},Apr{dimensionless},May{dimensionless},Jun{dimensionless},Jul{dimensionless},Aug{dimensionless},Sep{dimensionless},Oct{dimensionless},Nov{dimensionless},Dec{dimensionless}
 Site:GroundReflectance:Snow,  0.20,  0.20,  0.20,  0.20,  0.20,  0.20,  0.20,  0.20,  0.20,  0.20,  0.20,  0.20
! <Site:GroundReflectance:Snow:Daylighting>,Jan{dimensionless},Feb{dimensionless},Mar{dimensionless},Apr{dimensionless},May{dimensionless},Jun{dimensionless},Jul{dimensionless},Aug{dimensionless},Sep{dimensionless},Oct{dimensionless},Nov{dimensionless},Dec{dimensionless}
 Site:GroundReflectance:Snow:Daylighting,  0.20,  0.20,  0.20,  0.20,  0.20,  0.20,  0.20,  0.20,  0.20,  0.20,  0.20,  0.20
! <Environment:Weather Station>,Wind Sensor Height Above Ground {m},Wind Speed Profile Exponent {},Wind Speed Profile Boundary Layer Thickness {m},Air Temperature Sensor Height Above Ground {m},Wind Speed Modifier Coefficient-Internal,Temperature Modifier Coefficient-Internal
Environment:Weather Station,10.000,0.140,270.000,1.500,1.586,9.750E-003
! <Site:Location>, Location Name, Latitude {N+/S- Deg}, Longitude {E+/W- Deg},  Time Zone Number {GMT+/-}, Elevation {m},  Standard Pressure at Elevation {Pa}, Standard RhoAir at Elevation
Site:Location,New.Delhi-Gandhi.Intl.AP DL IND SRC-TMYx WMO#=421810,28.57,77.10,5.50,236.80,98512,1.1709
! <Site Water Mains Temperature Information>,Calculation Method{},Water Mains Temperature Schedule Name{},Annual Average Outdoor Air Temperature{C},Maximum Difference In Monthly Average Outdoor Air Temperatures{deltaC},Fixed Default Water Mains Temperature{C}
Site Water Mains Temperature Information,Correlation,NA,9.95,23.70,NA
! <Building Information>, Building Name,North Axis {deg},Terrain,  Loads Convergence Tolerance Value,Temperature Convergence Tolerance Value,  Solar Distribution,Maximum Number of Warmup Days,Minimum Number of Warmup Days
 Building Information,ApartmentHighRise,0.000,City,4.00000E-002,0.20000,MinimalShadowing,15,6
! <Inside Convection Algorithm>, Algorithm {Simple | TARP | CeilingDiffuser | AdaptiveConvectionAlgorithm}
Inside Convection Algorithm,TARP
! <Outside Convection Algorithm>, Algorithm {SimpleCombined | TARP | MoWitt | DOE-2 | AdaptiveConvectionAlgorithm}
Outside Convection Algorithm,DOE-2
! <Sky Radiance Distribution>, Value {Anisotropic}
Sky Radiance Distribution,Anisotropic
! <Zone Air Solution Algorithm>, Algorithm {ThirdOrderBackwardDifference | AnalyticalSolution | EulerMethod}, Space Heat Balance Sizing, Space Heat Balance Simulation
 Zone Air Solution Algorithm, ThirdOrderBackwardDifference, No, No
! <Zone Air Carbon Dioxide Balance Simulation>, Simulation {Yes/No}, Carbon Dioxide Concentration
 Zone Air Carbon Dioxide Balance Simulation, No,N/A
! <Zone Air Generic Contaminant Balance Simulation>, Simulation {Yes/No}, Generic Contaminant Concentration
 Zone Air Generic Contaminant Balance Simulation, No,N/A
! <Zone Air Mass Flow Balance Simulation>, Enforce Mass Balance, Adjust Zone Mixing and Return {AdjustMixingOnly | AdjustReturnOnly | AdjustMixingThenReturn | AdjustReturnThenMixing | None}, Adjust Zone Infiltration {AddInfiltration | AdjustInfiltration | None}, Infiltration Zones {MixingSourceZonesOnly | AllZones}
 Zone Air Mass Flow Balance Simulation, No,N/A,N/A,N/A
! <HVACSystemRootFindingAlgorithm>, Value {RegulaFalsi | Bisection | BisectionThenRegulaFalsi | RegulaFalsiThenBisection}
 HVACSystemRootFindingAlgorithm, RegulaFalsi
! <Environment:Site Atmospheric Variation>,Wind Speed Profile Exponent {},Wind Speed Profile Boundary Layer Thickness {m},Air Temperature Gradient Coefficient {K/m}
Environment:Site Atmospheric Variation,0.330,460.000,6.500000E-003
! <Shadowing/Sun Position Calculations Annual Simulations>, Shading Calculation Method, Shading Calculation Update Frequency Method, Shading Calculation Update Frequency {days}, Maximum Figures in Shadow Overlap Calculations {}, Polygon Clipping Algorithm, Pixel Counting Resolution, Sky Diffuse Modeling Algorithm, Output External Shading Calculation Results, Disable Self-Shading Within Shading Zone Groups, Disable Self-Shading From Shading Zone Groups to Other Zones
Shadowing/Sun Position Calculations Annual Simulations,PolygonClipping,Periodic,20,200,SutherlandHodgman,512,SimpleSkyDiffuseModeling,No,No,No
! <Surface Geometry>,Starting Corner,Vertex Input Direction,Coordinate System,Daylight Reference Point Coordinate System,Rectangular (Simple) Surface Coordinate System
 Surface Geometry,UpperLeftCorner,Counterclockwise,RelativeCoordinateSystem,RelativeCoordinateSystem,RelativeToZoneOrigin
! <Surface Heat Transfer Algorithm>, Value {CTF - ConductionTransferFunction | EMPD - MoisturePenetrationDepthConductionTransferFunction | CondFD - ConductionFiniteDifference | HAMT - CombinedHeatAndMoistureFiniteElement} - Description,Inside Surface Max Temperature Limit{C}, Surface Convection Coefficient Lower Limit {W/m2-K}, Surface Convection Coefficient Upper Limit {W/m2-K}
Surface Heat Transfer Algorithm, CTF - ConductionTransferFunction,200,0.10,1000.0
! <Shading Summary>, Number of Fixed Detached Shades, Number of Building Detached Shades, Number of Attached Shades
 Shading Summary,0,0,0
! <Zone Summary>, Number of Zones, Number of Zone Surfaces, Number of SubSurfaces
 Zone Summary,90,820,140
! <Zone Information>,Zone Name,North Axis {deg},Origin X-Coordinate {m},Origin Y-Coordinate {m},Origin Z-Coordinate {m},Centroid X-Coordinate {m},Centroid Y-Coordinate {m},Centroid Z-Coordinate {m},Type,Zone Multiplier,Zone List Multiplier,Minimum X {m},Maximum X {m},Minimum Y {m},Maximum Y {m},Minimum Z {m},Maximum Z {m},Ceiling Height {m},Volume {m3},Zone Inside Convection Algorithm {Simple-Detailed-CeilingDiffuser-TrombeWall},Zone Outside Convection Algorithm {Simple-Detailed-Tarp-MoWitt-DOE-2-BLAST}, Floor Area {m2},Exterior Gross Wall Area {m2},Exterior Net Wall Area {m2},Exterior Window Area {m2}, Number of Surfaces, Number of SubSurfaces, Number of Shading SubSurfaces,  Part of Total Building Area
 Zone Information, G SW APARTMENT,0.0,0.00,0.00,0.00,5.79,3.81,1.52,1,1,1,0.00,11.58,0.00,7.62,0.00,3.05,3.05,268.96,TARP,DOE-2,88.25,58.52,40.97,17.56,6,2,0,Yes
 Zone Information, G NW APARTMENT,0.0,0.00,9.30,0.00,5.79,13.11,1.52,1,1,1,0.00,11.58,9.30,16.92,0.00,3.05,3.05,268.96,TARP,DOE-2,88.25,58.52,40.97,17.56,6,2,0,Yes
 Zone Information, OFFICE,0.0,34.75,0.00,0.00,40.54,3.81,1.52,1,1,1,34.75,46.33,0.00,7.62,0.00,3.05,3.05,268.96,TARP,DOE-2,88.25,58.52,40.97,17.56,6,2,0,Yes
 Zone Information, G NE APARTMENT,0.0,34.75,9.30,0.00,40.54,13.11,1.52,1,1,1,34.75,46.33,9.30,16.92,0.00,3.05,3.05,268.96,TARP,DOE-2,88.25,58.52,40.97,17.56,6,2,0,Yes
 Zone Information, G N1 APARTMENT,0.0,11.58,9.30,0.00,17.37,13.11,1.52,1,1,1,11.58,23.16,9.30,16.92,0.00,3.05,3.05,268.96,TARP,DOE-2,88.25,35.30,24.71,10.59,6,1,0,Yes
 Zone Information, G N2 APARTMENT,0.0,23.16,9.30,0.00,28.95,13.11,1.52,1,1,1,23.16,34.75,9.30,16.92,0.00,3.05,3.05,268.97,TARP,DOE-2,88.25,35.30,24.71,10.59,6,1,0,Yes
 Zone Information, G S1 APARTMENT,0.0,11.58,0.00,0.00,17.37,3.81,1.52,1,1,1,11.58,23.16,0.00,7.62,0.00,3.05,3.05,268.96,TARP,DOE-2,88.25,35.30,24.71,10.59,6,1,0,Yes
 Zone Information, G S2 APARTMENT,0.0,23.16,0.00,0.00,28.95,3.81,1.52,1,1,1,23.16,34.75,0.00,7.62,0.00,3.05,3.05,268.97,TARP,DOE-2,88.25,35.30,24.71,10.59,6,1,0,Yes
 Zone Information, G CORRIDOR,0.0,0.00,7.62,0.00,23.16,8.46,1.52,1,1,1,0.00,46.33,7.62,9.30,0.00,3.05,3.05,236.69,TARP,DOE-2,77.66,10.22,5.74,4.47,12,2,0,Yes
 Zone Information, F2 SW APARTMENT,0.0,0.00,0.00,3.05,5.79,3.81,4.57,1,1,1,0.00,11.58,0.00,7.62,3.05,6.10,3.05,268.96,TARP,DOE-2,88.25,58.52,40.97,17.56,6,2,0,Yes
 Zone Information, F2 NW APARTMENT,0.0,0.00,9.30,3.05,5.79,13.11,4.57,1,1,1,0.00,11.58,9.30,16.92,3.05,6.10,3.05,268.96,TARP,DOE-2,88.25,58.52,40.97,17.56,6,2,0,Yes
 Zone Information, F2 SE APARTMENT,0.0,34.75,0.00,3.05,40.54,3.81,4.57,1,1,1,34.75,46.33,0.00,7.62,3.05,6.10,3.05,268.96,TARP,DOE-2,88.25,58.52,40.97,17.56,6,2,0,Yes
 Zone Information, F2 NE APARTMENT,0.0,34.75,9.30,3.05,40.54,13.11,4.57,1,1,1,34.75,46.33,9.30,16.92,3.05,6.10,3.05,268.96,TARP,DOE-2,88.25,58.52,40.97,17.56,6,2,0,Yes
 Zone Information, F2 N1 APARTMENT,0.0,11.58,9.30,3.05,17.37,13.11,4.57,1,1,1,11.58,23.16,9.30,16.92,3.05,6.10,3.05,268.96,TARP,DOE-2,88.25,35.30,24.71,10.59,6,1,0,Yes
 Zone Information, F2 N2 APARTMENT,0.0,23.16,9.30,3.05,28.95,13.11,4.57,1,1,1,23.16,34.75,9.30,16.92,3.05,6.10,3.05,268.97,TARP,DOE-2,88.25,35.30,24.71,10.59,6,1,0,Yes
 Zone Information, F2 S1 APARTMENT,0.0,11.58,0.00,3.05,17.37,3.81,4.57,1,1,1,11.58,23.16,0.00,7.62,3.05,6.10,3.05,268.96,TARP,DOE-2,88.25,35.30,24.71,10.59,6,1,0,Yes
 Zone Information, F2 S2 APARTMENT,0.0,23.16,0.00,3.05,28.95,3.81,4.57,1,1,1,23.16,34.75,0.00,7.62,3.05,6.10,3.05,268.97,TARP,DOE-2,88.25,35.30,24.71,10.59,6,1,0,Yes
 Zone Information, F2 CORRIDOR,0.0,0.00,7.62,3.05,23.16,8.46,4.57,1,1,1,0.00,46.33,7.62,9.30,3.05,6.10,3.05,236.69,TARP,DOE-2,77.66,10.22,7.99,2.23,12,2,0,Yes
 Zone Information, F3 SW APARTMENT,0.0,0.00,0.00,6.10,5.79,3.81,7.62,1,1,1,0.00,11.58,0.00,7.62,6.10,9.14,3.05,268.96,TARP,DOE-2,88.25,58.52,40.97,17.56,6,2,0,Yes
 Zone Information, F3 NW APARTMENT,0.0,0.00,9.30,6.10,5.79,13.11,7.62,1,1,1,0.00,11.58,9.30,16.92,6.10,9.14,3.05,268.96,TARP,DOE-2,88.25,58.52,40.97,17.56,6,2,0,Yes
 Zone Information, F3 SE APARTMENT,0.0,34.75,0.00,6.10,40.54,3.81,7.62,1,1,1,34.75,46.33,0.00,7.62,6.10,9.14,3.05,268.96,TARP,DOE-2,88.25,58.52,40.97,17.56,6,2,0,Yes
 Zone Information, F3 NE APARTMENT,0.0,34.75,9.30,6.10,40.54,13.11,7.62,1,1,1,34.75,46.33,9.30,16.92,6.10,9.14,3.05,268.96,TARP,DOE-2,88.25,58.52,40.97,17.56,6,2,0,Yes
 Zone Information, F3 N1 APARTMENT,0.0,11.58,9.30,6.10,17.37,13.11,7.62,1,1,1,11.58,23.16,9.30,16.92,6.10,9.14,3.05,268.96,TARP,DOE-2,88.25,35.30,24.71,10.59,6,1,0,Yes
 Zone Information, F3 N2 APARTMENT,0.0,23.16,9.30,6.10,28.95,13.11,7.62,1,1,1,23.16,34.75,9.30,16.92,6.10,9.14,3.05,268.97,TARP,DOE-2,88.25,35.30,24.71,10.59,6,1,0,Yes
 Zone Information, F3 S1 APARTMENT,0.0,11.58,0.00,6.10,17.37,3.81,7.62,1,1,1,11.58,23.16,0.00,7.62,6.10,9.14,3.05,268.96,TARP,DOE-2,88.25,35.30,24.71,10.59,6,1,0,Yes
 Zone Information, F3 S2 APARTMENT,0.0,23.16,0.00,6.10,28.95,3.81,7.62,1,1,1,23.16,34.75,0.00,7.62,6.10,9.14,3.05,268.97,TARP,DOE-2,88.25,35.30,24.71,10.59,6,1,0,Yes
 Zone Information, F3 CORRIDOR,0.0,0.00,7.62,6.10,23.16,8.46,7.62,1,1,1,0.00,46.33,7.62,9.30,6.10,9.14,3.05,236.69,TARP,DOE-2,77.66,10.22,7.99,2.23,12,2,0,Yes
 Zone Information, F4 SW APARTMENT,0.0,0.00,0.00,9.14,5.79,3.81,10.67,1,1,1,0.00,11.58,0.00,7.62,9.14,12.19,3.05,268.96,TARP,DOE-2,88.25,58.52,40.97,17.56,6,2,0,Yes
 Zone Information, F4 NW APARTMENT,0.0,0.00,9.30,9.14,5.79,13.11,10.67,1,1,1,0.00,11.58,9.30,16.92,9.14,12.19,3.05,268.96,TARP,DOE-2,88.25,58.52,40.97,17.56,6,2,0,Yes
 Zone Information, F4 SE APARTMENT,0.0,34.75,0.00,9.14,40.54,3.81,10.67,1,1,1,34.75,46.33,0.00,7.62,9.14,12.19,3.05,268.96,TARP,DOE-2,88.25,58.52,40.97,17.56,6,2,0,Yes
 Zone Information, F4 NE APARTMENT,0.0,34.75,9.30,9.14,40.54,13.11,10.67,1,1,1,34.75,46.33,9.30,16.92,9.14,12.19,3.05,268.96,TARP,DOE-2,88.25,58.52,40.97,17.56,6,2,0,Yes
 Zone Information, F4 N1 APARTMENT,0.0,11.58,9.30,9.14,17.37,13.11,10.67,1,1,1,11.58,23.16,9.30,16.92,9.14,12.19,3.05,268.96,TARP,DOE-2,88.25,35.30,24.71,10.59,6,1,0,Yes
 Zone Information, F4 N2 APARTMENT,0.0,23.16,9.30,9.14,28.95,13.11,10.67,1,1,1,23.16,34.75,9.30,16.92,9.14,12.19,3.05,268.97,TARP,DOE-2,88.25,35.30,24.71,10.59,6,1,0,Yes
 Zone Information, F4 S1 APARTMENT,0.0,11.58,0.00,9.14,17.37,3.81,10.67,1,1,1,11.58,23.16,0.00,7.62,9.14,12.19,3.05,268.96,TARP,DOE-2,88.25,35.30,24.71,10.59,6,1,0,Yes
 Zone Information, F4 S2 APARTMENT,0.0,23.16,0.00,9.14,28.95,3.81,10.67,1,1,1,23.16,34.75,0.00,7.62,9.14,12.19,3.05,268.97,TARP,DOE-2,88.25,35.30,24.71,10.59,6,1,0,Yes
 Zone Information, F4 CORRIDOR,0.0,0.00,7.62,9.14,23.16,8.46,10.67,1,1,1,0.00,46.33,7.62,9.30,9.14,12.19,3.05,236.69,TARP,DOE-2,77.66,10.22,7.99,2.23,12,2,0,Yes
 Zone Information, M SW APARTMENT,0.0,0.00,0.00,12.19,5.79,3.81,13.72,1,1,1,0.00,11.58,0.00,7.62,12.19,15.24,3.05,268.96,TARP,DOE-2,88.25,58.52,40.97,17.56,6,2,0,Yes
 Zone Information, M NW APARTMENT,0.0,0.00,9.30,12.19,5.79,13.11,13.72,1,1,1,0.00,11.58,9.30,16.92,12.19,15.24,3.05,268.96,TARP,DOE-2,88.25,58.52,40.97,17.56,6,2,0,Yes
 Zone Information, M SE APARTMENT,0.0,34.75,0.00,12.19,40.54,3.81,13.72,1,1,1,34.75,46.33,0.00,7.62,12.19,15.24,3.05,268.96,TARP,DOE-2,88.25,58.52,40.97,17.56,6,2,0,Yes
 Zone Information, M NE APARTMENT,0.0,34.75,9.30,12.19,40.54,13.11,13.72,1,1,1,34.75,46.33,9.30,16.92,12.19,15.24,3.05,268.96,TARP,DOE-2,88.25,58.52,40.97,17.56,6,2,0,Yes
 Zone Information, M N1 APARTMENT,0.0,11.58,9.30,12.19,17.37,13.11,13.72,1,1,1,11.58,23.16,9.30,16.92,12.19,15.24,3.05,268.96,TARP,DOE-2,88.25,35.30,24.71,10.59,6,1,0,Yes
 Zone Information, M N2 APARTMENT,0.0,23.16,9.30,12.19,28.95,13.11,13.72,1,1,1,23.16,34.75,9.30,16.92,12.19,15.24,3.05,268.97,TARP,DOE-2,88.25,35.30,24.71,10.59,6,1,0,Yes
 Zone Information, M S1 APARTMENT,0.0,11.58,0.00,12.19,17.37,3.81,13.72,1,1,1,11.58,23.16,0.00,7.62,12.19,15.24,3.05,268.96,TARP,DOE-2,88.25,35.30,24.71,10.59,6,1,0,Yes
 Zone Information, M S2 APARTMENT,0.0,23.16,0.00,12.19,28.95,3.81,13.72,1,1,1,23.16,34.75,0.00,7.62,12.19,15.24,3.05,268.97,TARP,DOE-2,88.25,35.30,24.71,10.59,6,1,0,Yes
 Zone Information, M CORRIDOR,0.0,0.00,7.62,12.19,23.16,8.46,13.72,1,1,1,0.00,46.33,7.62,9.30,12.19,15.24,3.05,236.69,TARP,DOE-2,77.66,10.22,7.99,2.23,12,2,0,Yes
 Zone Information, F6 SW APARTMENT,0.0,0.00,0.00,15.24,5.79,3.81,16.76,1,1,1,0.00,11.58,0.00,7.62,15.24,18.29,3.05,268.96,TARP,DOE-2,88.25,58.52,40.97,17.56,6,2,0,Yes
 Zone Information, F6 NW APARTMENT,0.0,0.00,9.30,15.24,5.79,13.11,16.76,1,1,1,0.00,11.58,9.30,16.92,15.24,18.29,3.05,268.96,TARP,DOE-2,88.25,58.52,40.97,17.56,6,2,0,Yes
 Zone Information, F6 SE APARTMENT,0.0,34.75,0.00,15.24,40.54,3.81,16.76,1,1,1,34.75,46.33,0.00,7.62,15.24,18.29,3.05,268.96,TARP,DOE-2,88.25,58.52,40.97,17.56,6,2,0,Yes
 Zone Information, F6 NE APARTMENT,0.0,34.75,9.30,15.24,40.54,13.11,16.76,1,1,1,34.75,46.33,9.30,16.92,15.24,18.29,3.05,268.96,TARP,DOE-2,88.25,58.52,40.97,17.56,6,2,0,Yes
 Zone Information, F6 N1 APARTMENT,0.0,11.58,9.30,15.24,17.37,13.11,16.76,1,1,1,11.58,23.16,9.30,16.92,15.24,18.29,3.05,268.96,TARP,DOE-2,88.25,35.30,24.71,10.59,6,1,0,Yes
 Zone Information, F6 N2 APARTMENT,0.0,23.16,9.30,15.24,28.95,13.11,16.76,1,1,1,23.16,34.75,9.30,16.92,15.24,18.29,3.05,268.97,TARP,DOE-2,88.25,35.30,24.71,10.59,6,1,0,Yes
 Zone Information, F6 S1 APARTMENT,0.0,11.58,0.00,15.24,17.37,3.81,16.76,1,1,1,11.58,23.16,0.00,7.62,15.24,18.29,3.05,268.96,TARP,DOE-2,88.25,35.30,24.71,10.59,6,1,0,Yes
 Zone Information, F6 S2 APARTMENT,0.0,23.16,0.00,15.24,28.95,3.81,16.76,1,1,1,23.16,34.75,0.00,7.62,15.24,18.29,3.05,268.97,TARP,DOE-2,88.25,35.30,24.71,10.59,6,1,0,Yes
 Zone Information, F6 CORRIDOR,0.0,0.00,7.62,15.24,23.16,8.46,16.76,1,1,1,0.00,46.33,7.62,9.30,15.24,18.29,3.05,236.69,TARP,DOE-2,77.66,10.22,7.99,2.23,12,2,0,Yes
 Zone Information, F7 SW APARTMENT,0.0,0.00,0.00,18.29,5.79,3.81,19.81,1,1,1,0.00,11.58,0.00,7.62,18.29,21.33,3.05,268.96,TARP,DOE-2,88.25,58.52,40.97,17.56,6,2,0,Yes
 Zone Information, F7 NW APARTMENT,0.0,0.00,9.30,18.29,5.79,13.11,19.81,1,1,1,0.00,11.58,9.30,16.92,18.29,21.33,3.05,268.96,TARP,DOE-2,88.25,58.52,40.97,17.56,6,2,0,Yes
 Zone Information, F7 SE APARTMENT,0.0,34.75,0.00,18.29,40.54,3.81,19.81,1,1,1,34.75,46.33,0.00,7.62,18.29,21.33,3.05,268.96,TARP,DOE-2,88.25,58.52,40.97,17.56,6,2,0,Yes
 Zone Information, F7 NE APARTMENT,0.0,34.75,9.30,18.29,40.54,13.11,19.81,1,1,1,34.75,46.33,9.30,16.92,18.29,21.33,3.05,268.96,TARP,DOE-2,88.25,58.52,40.97,17.56,6,2,0,Yes
 Zone Information, F7 N1 APARTMENT,0.0,11.58,9.30,18.29,17.37,13.11,19.81,1,1,1,11.58,23.16,9.30,16.92,18.29,21.33,3.05,268.96,TARP,DOE-2,88.25,35.30,24.71,10.59,6,1,0,Yes
 Zone Information, F7 N2 APARTMENT,0.0,23.16,9.30,18.29,28.95,13.11,19.81,1,1,1,23.16,34.75,9.30,16.92,18.29,21.33,3.05,268.97,TARP,DOE-2,88.25,35.30,24.71,10.59,6,1,0,Yes
 Zone Information, F7 S1 APARTMENT,0.0,11.58,0.00,18.29,17.37,3.81,19.81,1,1,1,11.58,23.16,0.00,7.62,18.29,21.33,3.05,268.96,TARP,DOE-2,88.25,35.30,24.71,10.59,6,1,0,Yes
 Zone Information, F7 S2 APARTMENT,0.0,23.16,0.00,18.29,28.95,3.81,19.81,1,1,1,23.16,34.75,0.00,7.62,18.29,21.33,3.05,268.97,TARP,DOE-2,88.25,35.30,24.71,10.59,6,1,0,Yes
 Zone Information, F7 CORRIDOR,0.0,0.00,7.62,18.29,23.16,8.46,19.81,1,1,1,0.00,46.33,7.62,9.30,18.29,21.33,3.05,236.69,TARP,DOE-2,77.66,10.22,7.99,2.23,12,2,0,Yes
 Zone Information, F8 SW APARTMENT,0.0,0.00,0.00,21.33,5.79,3.81,22.86,1,1,1,0.00,11.58,0.00,7.62,21.33,24.38,3.05,268.96,TARP,DOE-2,88.25,58.52,40.97,17.56,6,2,0,Yes
 Zone Information, F8 NW APARTMENT,0.0,0.00,9.30,21.33,5.79,13.11,22.86,1,1,1,0.00,11.58,9.30,16.92,21.33,24.38,3.05,268.96,TARP,DOE-2,88.25,58.52,40.97,17.56,6,2,0,Yes
 Zone Information, F8 SE APARTMENT,0.0,34.75,0.00,21.33,40.54,3.81,22.86,1,1,1,34.75,46.33,0.00,7.62,21.33,24.38,3.05,268.96,TARP,DOE-2,88.25,58.52,40.97,17.56,6,2,0,Yes
 Zone Information, F8 NE APARTMENT,0.0,34.75,9.30,21.33,40.54,13.11,22.86,1,1,1,34.75,46.33,9.30,16.92,21.33,24.38,3.05,268.96,TARP,DOE-2,88.25,58.52,40.97,17.56,6,2,0,Yes
 Zone Information, F8 N1 APARTMENT,0.0,11.58,9.30,21.33,17.37,13.11,22.86,1,1,1,11.58,23.16,9.30,16.92,21.33,24.38,3.05,268.96,TARP,DOE-2,88.25,35.30,24.71,10.59,6,1,0,Yes
 Zone Information, F8 N2 APARTMENT,0.0,23.16,9.30,21.33,28.95,13.11,22.86,1,1,1,23.16,34.75,9.30,16.92,21.33,24.38,3.05,268.97,TARP,DOE-2,88.25,35.30,24.71,10.59,6,1,0,Yes
 Zone Information, F8 S1 APARTMENT,0.0,11.58,0.00,21.33,17.37,3.81,22.86,1,1,1,11.58,23.16,0.00,7.62,21.33,24.38,3.05,268.96,TARP,DOE-2,88.25,35.30,24.71,10.59,6,1,0,Yes
 Zone Information, F8 S2 APARTMENT,0.0,23.16,0.00,21.33,28.95,3.81,22.86,1,1,1,23.16,34.75,0.00,7.62,21.33,24.38,3.05,268.97,TARP,DOE-2,88.25,35.30,24.71,10.59,6,1,0,Yes
 Zone Information, F8 CORRIDOR,0.0,0.00,7.62,21.33,23.16,8.46,22.86,1,1,1,0.00,46.33,7.62,9.30,21.33,24.38,3.05,236.69,TARP,DOE-2,77.66,10.22,7.99,2.23,12,2,0,Yes
 Zone Information, F9 SW APARTMENT,0.0,0.00,0.00,24.38,5.79,3.81,25.91,1,1,1,0.00,11.58,0.00,7.62,24.38,27.43,3.05,268.96,TARP,DOE-2,88.25,58.52,40.97,17.56,6,2,0,Yes
 Zone Information, F9 NW APARTMENT,0.0,0.00,9.30,24.38,5.79,13.11,25.91,1,1,1,0.00,11.58,9.30,16.92,24.38,27.43,3.05,268.96,TARP,DOE-2,88.25,58.52,40.97,17.56,6,2,0,Yes
 Zone Information, F9 SE APARTMENT,0.0,34.75,0.00,24.38,40.54,3.81,25.91,1,1,1,34.75,46.33,0.00,7.62,24.38,27.43,3.05,268.96,TARP,DOE-2,88.25,58.52,40.97,17.56,6,2,0,Yes
 Zone Information, F9 NE APARTMENT,0.0,34.75,9.30,24.38,40.54,13.11,25.91,1,1,1,34.75,46.33,9.30,16.92,24.38,27.43,3.05,268.96,TARP,DOE-2,88.25,58.52,40.97,17.56,6,2,0,Yes
 Zone Information, F9 N1 APARTMENT,0.0,11.58,9.30,24.38,17.37,13.11,25.91,1,1,1,11.58,23.16,9.30,16.92,24.38,27.43,3.05,268.96,TARP,DOE-2,88.25,35.30,24.71,10.59,6,1,0,Yes
 Zone Information, F9 N2 APARTMENT,0.0,23.16,9.30,24.38,28.95,13.11,25.91,1,1,1,23.16,34.75,9.30,16.92,24.38,27.43,3.05,268.97,TARP,DOE-2,88.25,35.30,24.71,10.59,6,1,0,Yes
 Zone Information, F9 S1 APARTMENT,0.0,11.58,0.00,24.38,17.37,3.81,25.91,1,1,1,11.58,23.16,0.00,7.62,24.38,27.43,3.05,268.96,TARP,DOE-2,88.25,35.30,24.71,10.59,6,1,0,Yes
 Zone Information, F9 S2 APARTMENT,0.0,23.16,0.00,24.38,28.95,3.81,25.91,1,1,1,23.16,34.75,0.00,7.62,24.38,27.43,3.05,268.97,TARP,DOE-2,88.25,35.30,24.71,10.59,6,1,0,Yes
 Zone Information, F9 CORRIDOR,0.0,0.00,7.62,24.38,23.16,8.46,25.91,1,1,1,0.00,46.33,7.62,9.30,24.38,27.43,3.05,236.69,TARP,DOE-2,77.66,10.22,7.99,2.23,12,2,0,Yes
 Zone Information, T SW APARTMENT,0.0,0.00,0.00,27.43,5.79,3.81,28.95,1,1,1,0.00,11.58,0.00,7.62,27.43,30.48,3.05,268.96,TARP,DOE-2,88.25,58.52,40.97,17.56,6,2,0,Yes
 Zone Information, T NW APARTMENT,0.0,0.00,9.30,27.43,5.79,13.11,28.95,1,1,1,0.00,11.58,9.30,16.92,27.43,30.48,3.05,268.96,TARP,DOE-2,88.25,58.52,40.97,17.56,6,2,0,Yes
 Zone Information, T SE APARTMENT,0.0,34.75,0.00,27.43,40.54,3.81,28.95,1,1,1,34.75,46.33,0.00,7.62,27.43,30.48,3.05,268.96,TARP,DOE-2,88.25,58.52,40.97,17.56,6,2,0,Yes
 Zone Information, T NE APARTMENT,0.0,34.75,9.30,27.43,40.54,13.11,28.95,1,1,1,34.75,46.33,9.30,16.92,27.43,30.48,3.05,268.96,TARP,DOE-2,88.25,58.52,40.97,17.56,6,2,0,Yes
 Zone Information, T N1 APARTMENT,0.0,11.58,9.30,27.43,17.37,13.11,28.95,1,1,1,11.58,23.16,9.30,16.92,27.43,30.48,3.05,268.96,TARP,DOE-2,88.25,35.30,24.71,10.59,6,1,0,Yes
 Zone Information, T N2 APARTMENT,0.0,23.16,9.30,27.43,28.95,13.11,28.95,1,1,1,23.16,34.75,9.30,16.92,27.43,30.48,3.05,268.97,TARP,DOE-2,88.25,35.30,24.71,10.59,6,1,0,Yes
 Zone Information, T S1 APARTMENT,0.0,11.58,0.00,27.43,17.37,3.81,28.95,1,1,1,11.58,23.16,0.00,7.62,27.43,30.48,3.05,268.96,TARP,DOE-2,88.25,35.30,24.71,10.59,6,1,0,Yes
 Zone Information, T S2 APARTMENT,0.0,23.16,0.00,27.43,28.95,3.81,28.95,1,1,1,23.16,34.75,0.00,7.62,27.43,30.48,3.05,268.97,TARP,DOE-2,88.25,35.30,24.71,10.59,6,1,0,Yes
 Zone Information, T CORRIDOR,0.0,0.00,7.62,27.43,23.16,8.46,28.95,1,1,1,0.00,46.33,7.62,9.30,27.43,30.48,3.05,236.69,TARP,DOE-2,77.66,10.22,7.99,2.23,12,2,0,Yes
! <Zone Internal Gains Nominal>,Zone Name, Floor Area {m2},# Occupants,Area per Occupant {m2/person},Occupant per Area {person/m2},Interior Lighting {W/m2},Electric Load {W/m2},Gas Load {W/m2},Other Load {W/m2},Hot Water Eq {W/m2},Steam Equipment {W/m2},Sum Loads per Area {W/m2},Outdoor Controlled Baseboard Heat
 Zone Internal Gains Nominal, G SW APARTMENT,88.25,2.5,35.299,2.833E-002,9.365,6.670,0.000,0.000,0.000,0.000,16.035,No
 Zone Internal Gains Nominal, G NW APARTMENT,88.25,2.5,35.299,2.833E-002,9.365,6.670,0.000,0.000,0.000,0.000,16.035,No
 Zone Internal Gains Nominal, OFFICE,88.25,1.0,88.249,1.133E-002,7.965,6.670,0.000,0.000,0.000,0.000,14.635,No
 Zone Internal Gains Nominal, G NE APARTMENT,88.25,2.5,35.299,2.833E-002,9.365,6.670,0.000,0.000,0.000,0.000,16.035,No
 Zone Internal Gains Nominal, G N1 APARTMENT,88.25,2.5,35.299,2.833E-002,9.365,6.670,0.000,0.000,0.000,0.000,16.035,No
 Zone Internal Gains Nominal, G N2 APARTMENT,88.25,2.5,35.299,2.833E-002,9.365,6.670,0.000,0.000,0.000,0.000,16.035,No
 Zone Internal Gains Nominal, G S1 APARTMENT,88.25,2.5,35.299,2.833E-002,9.365,6.670,0.000,0.000,0.000,0.000,16.035,No
 Zone Internal Gains Nominal, G S2 APARTMENT,88.25,2.5,35.299,2.833E-002,9.365,6.670,0.000,0.000,0.000,0.000,16.035,No
 Zone Internal Gains Nominal, G CORRIDOR,77.66,0.0,N/A,0.000,5.296,0.000,0.000,0.000,0.000,0.000,5.296,No
 Zone Internal Gains Nominal, F2 SW APARTMENT,88.25,2.5,35.299,2.833E-002,9.365,6.670,0.000,0.000,0.000,0.000,16.035,No
 Zone Internal Gains Nominal, F2 NW APARTMENT,88.25,2.5,35.299,2.833E-002,9.365,6.670,0.000,0.000,0.000,0.000,16.035,No
 Zone Internal Gains Nominal, F2 SE APARTMENT,88.25,2.5,35.299,2.833E-002,9.365,6.670,0.000,0.000,0.000,0.000,16.035,No
 Zone Internal Gains Nominal, F2 NE APARTMENT,88.25,2.5,35.299,2.833E-002,9.365,6.670,0.000,0.000,0.000,0.000,16.035,No
 Zone Internal Gains Nominal, F2 N1 APARTMENT,88.25,2.5,35.299,2.833E-002,9.365,6.670,0.000,0.000,0.000,0.000,16.035,No
 Zone Internal Gains Nominal, F2 N2 APARTMENT,88.25,2.5,35.299,2.833E-002,9.365,6.670,0.000,0.000,0.000,0.000,16.035,No
 Zone Internal Gains Nominal, F2 S1 APARTMENT,88.25,2.5,35.299,2.833E-002,9.365,6.670,0.000,0.000,0.000,0.000,16.035,No
 Zone Internal Gains Nominal, F2 S2 APARTMENT,88.25,2.5,35.299,2.833E-002,9.365,6.670,0.000,0.000,0.000,0.000,16.035,No
 Zone Internal Gains Nominal, F2 CORRIDOR,77.66,0.0,N/A,0.000,5.296,0.000,0.000,0.000,0.000,0.000,5.296,No
 Zone Internal Gains Nominal, F3 SW APARTMENT,88.25,2.5,35.299,2.833E-002,9.365,6.670,0.000,0.000,0.000,0.000,16.035,No
 Zone Internal Gains Nominal, F3 NW APARTMENT,88.25,2.5,35.299,2.833E-002,9.365,6.670,0.000,0.000,0.000,0.000,16.035,No
 Zone Internal Gains Nominal, F3 SE APARTMENT,88.25,2.5,35.299,2.833E-002,9.365,6.670,0.000,0.000,0.000,0.000,16.035,No
 Zone Internal Gains Nominal, F3 NE APARTMENT,88.25,2.5,35.299,2.833E-002,9.365,6.670,0.000,0.000,0.000,0.000,16.035,No
 Zone Internal Gains Nominal, F3 N1 APARTMENT,88.25,2.5,35.299,2.833E-002,9.365,6.670,0.000,0.000,0.000,0.000,16.035,No
 Zone Internal Gains Nominal, F3 N2 APARTMENT,88.25,2.5,35.299,2.833E-002,9.365,6.670,0.000,0.000,0.000,0.000,16.035,No
 Zone Internal Gains Nominal, F3 S1 APARTMENT,88.25,2.5,35.299,2.833E-002,9.365,6.670,0.000,0.000,0.000,0.000,16.035,No
 Zone Internal Gains Nominal, F3 S2 APARTMENT,88.25,2.5,35.299,2.833E-002,9.365,6.670,0.000,0.000,0.000,0.000,16.035,No
 Zone Internal Gains Nominal, F3 CORRIDOR,77.66,0.0,N/A,0.000,5.296,0.000,0.000,0.000,0.000,0.000,5.296,No
 Zone Internal Gains Nominal, F4 SW APARTMENT,88.25,2.5,35.299,2.833E-002,9.365,6.670,0.000,0.000,0.000,0.000,16.035,No
 Zone Internal Gains Nominal, F4 NW APARTMENT,88.25,2.5,35.299,2.833E-002,9.365,6.670,0.000,0.000,0.000,0.000,16.035,No
 Zone Internal Gains Nominal, F4 SE APARTMENT,88.25,2.5,35.299,2.833E-002,9.365,6.670,0.000,0.000,0.000,0.000,16.035,No
 Zone Internal Gains Nominal, F4 NE APARTMENT,88.25,2.5,35.299,2.833E-002,9.365,6.670,0.000,0.000,0.000,0.000,16.035,No
 Zone Internal Gains Nominal, F4 N1 APARTMENT,88.25,2.5,35.299,2.833E-002,9.365,6.670,0.000,0.000,0.000,0.000,16.035,No
 Zone Internal Gains Nominal, F4 N2 APARTMENT,88.25,2.5,35.299,2.833E-002,9.365,6.670,0.000,0.000,0.000,0.000,16.035,No
 Zone Internal Gains Nominal, F4 S1 APARTMENT,88.25,2.5,35.299,2.833E-002,9.365,6.670,0.000,0.000,0.000,0.000,16.035,No
 Zone Internal Gains Nominal, F4 S2 APARTMENT,88.25,2.5,35.299,2.833E-002,9.365,6.670,0.000,0.000,0.000,0.000,16.035,No
 Zone Internal Gains Nominal, F4 CORRIDOR,77.66,0.0,N/A,0.000,5.296,0.000,0.000,0.000,0.000,0.000,5.296,No
 Zone Internal Gains Nominal, M SW APARTMENT,88.25,2.5,35.299,2.833E-002,9.365,6.670,0.000,0.000,0.000,0.000,16.035,No
 Zone Internal Gains Nominal, M NW APARTMENT,88.25,2.5,35.299,2.833E-002,9.365,6.670,0.000,0.000,0.000,0.000,16.035,No
 Zone Internal Gains Nominal, M SE APARTMENT,88.25,2.5,35.299,2.833E-002,9.365,6.670,0.000,0.000,0.000,0.000,16.035,No
 Zone Internal Gains Nominal, M NE APARTMENT,88.25,2.5,35.299,2.833E-002,9.365,6.670,0.000,0.000,0.000,0.000,16.035,No
 Zone Internal Gains Nominal, M N1 APARTMENT,88.25,2.5,35.299,2.833E-002,9.365,6.670,0.000,0.000,0.000,0.000,16.035,No
 Zone Internal Gains Nominal, M N2 APARTMENT,88.25,2.5,35.299,2.833E-002,9.365,6.670,0.000,0.000,0.000,0.000,16.035,No
 Zone Internal Gains Nominal, M S1 APARTMENT,88.25,2.5,35.299,2.833E-002,9.365,6.670,0.000,0.000,0.000,0.000,16.035,No
 Zone Internal Gains Nominal, M S2 APARTMENT,88.25,2.5,35.299,2.833E-002,9.365,6.670,0.000,0.000,0.000,0.000,16.035,No
 Zone Internal Gains Nominal, M CORRIDOR,77.66,0.0,N/A,0.000,5.296,0.000,0.000,0.000,0.000,0.000,5.296,No
 Zone Internal Gains Nominal, F6 SW APARTMENT,88.25,2.5,35.299,2.833E-002,9.365,6.670,0.000,0.000,0.000,0.000,16.035,No
 Zone Internal Gains Nominal, F6 NW APARTMENT,88.25,2.5,35.299,2.833E-002,9.365,6.670,0.000,0.000,0.000,0.000,16.035,No
 Zone Internal Gains Nominal, F6 SE APARTMENT,88.25,2.5,35.299,2.833E-002,9.365,6.670,0.000,0.000,0.000,0.000,16.035,No
 Zone Internal Gains Nominal, F6 NE APARTMENT,88.25,2.5,35.299,2.833E-002,9.365,6.670,0.000,0.000,0.000,0.000,16.035,No
 Zone Internal Gains Nominal, F6 N1 APARTMENT,88.25,2.5,35.299,2.833E-002,9.365,6.670,0.000,0.000,0.000,0.000,16.035,No
 Zone Internal Gains Nominal, F6 N2 APARTMENT,88.25,2.5,35.299,2.833E-002,9.365,6.670,0.000,0.000,0.000,0.000,16.035,No
 Zone Internal Gains Nominal, F6 S1 APARTMENT,88.25,2.5,35.299,2.833E-002,9.365,6.670,0.000,0.000,0.000,0.000,16.035,No
 Zone Internal Gains Nominal, F6 S2 APARTMENT,88.25,2.5,35.299,2.833E-002,9.365,6.670,0.000,0.000,0.000,0.000,16.035,No
 Zone Internal Gains Nominal, F6 CORRIDOR,77.66,0.0,N/A,0.000,5.296,0.000,0.000,0.000,0.000,0.000,5.296,No
 Zone Internal Gains Nominal, F7 SW APARTMENT,88.25,2.5,35.299,2.833E-002,9.365,6.670,0.000,0.000,0.000,0.000,16.035,No
 Zone Internal Gains Nominal, F7 NW APARTMENT,88.25,2.5,35.299,2.833E-002,9.365,6.670,0.000,0.000,0.000,0.000,16.035,No
 Zone Internal Gains Nominal, F7 SE APARTMENT,88.25,2.5,35.299,2.833E-002,9.365,6.670,0.000,0.000,0.000,0.000,16.035,No
 Zone Internal Gains Nominal, F7 NE APARTMENT,88.25,2.5,35.299,2.833E-002,9.365,6.670,0.000,0.000,0.000,0.000,16.035,No
 Zone Internal Gains Nominal, F7 N1 APARTMENT,88.25,2.5,35.299,2.833E-002,9.365,6.670,0.000,0.000,0.000,0.000,16.035,No
 Zone Internal Gains Nominal, F7 N2 APARTMENT,88.25,2.5,35.299,2.833E-002,9.365,6.670,0.000,0.000,0.000,0.000,16.035,No
 Zone Internal Gains Nominal, F7 S1 APARTMENT,88.25,2.5,35.299,2.833E-002,9.365,6.670,0.000,0.000,0.000,0.000,16.035,No
 Zone Internal Gains Nominal, F7 S2 APARTMENT,88.25,2.5,35.299,2.833E-002,9.365,6.670,0.000,0.000,0.000,0.000,16.035,No
 Zone Internal Gains Nominal, F7 CORRIDOR,77.66,0.0,N/A,0.000,5.296,0.000,0.000,0.000,0.000,0.000,5.296,No
 Zone Internal Gains Nominal, F8 SW APARTMENT,88.25,2.5,35.299,2.833E-002,9.365,6.670,0.000,0.000,0.000,0.000,16.035,No
 Zone Internal Gains Nominal, F8 NW APARTMENT,88.25,2.5,35.299,2.833E-002,9.365,6.670,0.000,0.000,0.000,0.000,16.035,No
 Zone Internal Gains Nominal, F8 SE APARTMENT,88.25,2.5,35.299,2.833E-002,9.365,6.670,0.000,0.000,0.000,0.000,16.035,No
 Zone Internal Gains Nominal, F8 NE APARTMENT,88.25,2.5,35.299,2.833E-002,9.365,6.670,0.000,0.000,0.000,0.000,16.035,No
 Zone Internal Gains Nominal, F8 N1 APARTMENT,88.25,2.5,35.299,2.833E-002,9.365,6.670,0.000,0.000,0.000,0.000,16.035,No
 Zone Internal Gains Nominal, F8 N2 APARTMENT,88.25,2.5,35.299,2.833E-002,9.365,6.670,0.000,0.000,0.000,0.000,16.035,No
 Zone Internal Gains Nominal, F8 S1 APARTMENT,88.25,2.5,35.299,2.833E-002,9.365,6.670,0.000,0.000,0.000,0.000,16.035,No
 Zone Internal Gains Nominal, F8 S2 APARTMENT,88.25,2.5,35.299,2.833E-002,9.365,6.670,0.000,0.000,0.000,0.000,16.035,No
 Zone Internal Gains Nominal, F8 CORRIDOR,77.66,0.0,N/A,0.000,5.296,0.000,0.000,0.000,0.000,0.000,5.296,No
 Zone Internal Gains Nominal, F9 SW APARTMENT,88.25,2.5,35.299,2.833E-002,9.365,6.670,0.000,0.000,0.000,0.000,16.035,No
 Zone Internal Gains Nominal, F9 NW APARTMENT,88.25,2.5,35.299,2.833E-002,9.365,6.670,0.000,0.000,0.000,0.000,16.035,No
 Zone Internal Gains Nominal, F9 SE APARTMENT,88.25,2.5,35.299,2.833E-002,9.365,6.670,0.000,0.000,0.000,0.000,16.035,No
 Zone Internal Gains Nominal, F9 NE APARTMENT,88.25,2.5,35.299,2.833E-002,9.365,6.670,0.000,0.000,0.000,0.000,16.035,No
 Zone Internal Gains Nominal, F9 N1 APARTMENT,88.25,2.5,35.299,2.833E-002,9.365,6.670,0.000,0.000,0.000,0.000,16.035,No
 Zone Internal Gains Nominal, F9 N2 APARTMENT,88.25,2.5,35.299,2.833E-002,9.365,6.670,0.000,0.000,0.000,0.000,16.035,No
 Zone Internal Gains Nominal, F9 S1 APARTMENT,88.25,2.5,35.299,2.833E-002,9.365,6.670,0.000,0.000,0.000,0.000,16.035,No
 Zone Internal Gains Nominal, F9 S2 APARTMENT,88.25,2.5,35.299,2.833E-002,9.365,6.670,0.000,0.000,0.000,0.000,16.035,No
 Zone Internal Gains Nominal, F9 CORRIDOR,77.66,0.0,N/A,0.000,5.296,0.000,0.000,0.000,0.000,0.000,5.296,No
 Zone Internal Gains Nominal, T SW APARTMENT,88.25,2.5,35.299,2.833E-002,9.365,6.670,0.000,0.000,0.000,0.000,16.035,No
 Zone Internal Gains Nominal, T NW APARTMENT,88.25,2.5,35.299,2.833E-002,9.365,6.670,0.000,0.000,0.000,0.000,16.035,No
 Zone Internal Gains Nominal, T SE APARTMENT,88.25,2.5,35.299,2.833E-002,9.365,6.670,0.000,0.000,0.000,0.000,16.035,No
 Zone Internal Gains Nominal, T NE APARTMENT,88.25,2.5,35.299,2.833E-002,9.365,6.670,0.000,0.000,0.000,0.000,16.035,No
 Zone Internal Gains Nominal, T N1 APARTMENT,88.25,2.5,35.299,2.833E-002,9.365,6.670,0.000,0.000,0.000,0.000,16.035,No
 Zone Internal Gains Nominal, T N2 APARTMENT,88.25,2.5,35.299,2.833E-002,9.365,6.670,0.000,0.000,0.000,0.000,16.035,No
 Zone Internal Gains Nominal, T S1 APARTMENT,88.25,2.5,35.299,2.833E-002,9.365,6.670,0.000,0.000,0.000,0.000,16.035,No
 Zone Internal Gains Nominal, T S2 APARTMENT,88.25,2.5,35.299,2.833E-002,9.365,6.670,0.000,0.000,0.000,0.000,16.035,No
 Zone Internal Gains Nominal, T CORRIDOR,77.66,0.0,N/A,0.000,5.296,263.114,0.000,0.000,0.000,0.000,268.410,No
! <People Internal Gains Nominal>,Name,Schedule Name,Zone Name,Zone Floor Area {m2},# Zone Occupants,Number of People {},People/Floor Area {person/m2},Floor Area per person {m2/person},Fraction Radiant,Fraction Convected,Sensible Fraction Calculation,Activity level,ASHRAE 55 Warnings,Carbon Dioxide Generation Rate,Minimum Number of People for All Day Types,Maximum Number of People for All Day Types,Minimum Number of People for Weekdays, Maximum Number of People for Weekdays, Minimum Number of People for Weekends/Holidays, Maximum Number of People for Weekends /Holidays,Minimum Number of People for Summer Design Days, Maximum Number of People for Summer Design Days,Minimum Number of People for Winter Design Days, Maximum Number of People for Winter Design Days
 People Internal Gains Nominal, G SW APARTMENT PEOPLE,OCC_APT_SCH,G SW APARTMENT,88.25,2.5,2.5,2.833E-002,35.299,0.500,0.500,AutoCalculate,ACTIVITY SCHEDULE,No,3.8200E-008,0.6,2.5,0.6,2.5,0.6,2.5,0.6,2.5,0.6,2.5,
 People Internal Gains Nominal, G NW APARTMENT PEOPLE,OCC_APT_SCH,G NW APARTMENT,88.25,2.5,2.5,2.833E-002,35.299,0.300,0.700,AutoCalculate,ACTIVITY SCHEDULE,No,3.8200E-008,0.6,2.5,0.6,2.5,0.6,2.5,0.6,2.5,0.6,2.5,
 People Internal Gains Nominal, OFFICE PEOPLE,OCC_OFF_W_SB_SCH,OFFICE,88.25,1.0,1.0,1.133E-002,88.249,0.300,0.700,AutoCalculate,ACTIVITY SCHEDULE,No,3.8200E-008,0.0,1.0,0.0,1.0,0.0,0.0,0.0,0.0,0.0,0.0,
 People Internal Gains Nominal, G NE APARTMENT PEOPLE,OCC_APT_SCH,G NE APARTMENT,88.25,2.5,2.5,2.833E-002,35.299,0.300,0.700,AutoCalculate,ACTIVITY SCHEDULE,No,3.8200E-008,0.6,2.5,0.6,2.5,0.6,2.5,0.6,2.5,0.6,2.5,
 People Internal Gains Nominal, G N1 APARTMENT PEOPLE,OCC_APT_SCH,G N1 APARTMENT,88.25,2.5,2.5,2.833E-002,35.299,0.300,0.700,AutoCalculate,ACTIVITY SCHEDULE,No,3.8200E-008,0.6,2.5,0.6,2.5,0.6,2.5,0.6,2.5,0.6,2.5,
 People Internal Gains Nominal, G N2 APARTMENT PEOPLE,OCC_APT_SCH,G N2 APARTMENT,88.25,2.5,2.5,2.833E-002,35.299,0.300,0.700,AutoCalculate,ACTIVITY SCHEDULE,No,3.8200E-008,0.6,2.5,0.6,2.5,0.6,2.5,0.6,2.5,0.6,2.5,
 People Internal Gains Nominal, G S1 APARTMENT PEOPLE,OCC_APT_SCH,G S1 APARTMENT,88.25,2.5,2.5,2.833E-002,35.299,0.300,0.700,AutoCalculate,ACTIVITY SCHEDULE,No,3.8200E-008,0.6,2.5,0.6,2.5,0.6,2.5,0.6,2.5,0.6,2.5,
 People Internal Gains Nominal, G S2 APARTMENT PEOPLE,OCC_APT_SCH,G S2 APARTMENT,88.25,2.5,2.5,2.833E-002,35.299,0.300,0.700,AutoCalculate,ACTIVITY SCHEDULE,No,3.8200E-008,0.6,2.5,0.6,2.5,0.6,2.5,0.6,2.5,0.6,2.5,
 People Internal Gains Nominal, F2 SW APARTMENT PEOPLE,OCC_APT_SCH,F2 SW APARTMENT,88.25,2.5,2.5,2.833E-002,35.299,0.300,0.700,AutoCalculate,ACTIVITY SCHEDULE,No,3.8200E-008,0.6,2.5,0.6,2.5,0.6,2.5,0.6,2.5,0.6,2.5,
 People Internal Gains Nominal, F2 NW APARTMENT PEOPLE,OCC_APT_SCH,F2 NW APARTMENT,88.25,2.5,2.5,2.833E-002,35.299,0.300,0.700,AutoCalculate,ACTIVITY SCHEDULE,No,3.8200E-008,0.6,2.5,0.6,2.5,0.6,2.5,0.6,2.5,0.6,2.5,
 People Internal Gains Nominal, F2 SE APARTMENT PEOPLE,OCC_APT_SCH,F2 SE APARTMENT,88.25,2.5,2.5,2.833E-002,35.299,0.300,0.700,AutoCalculate,ACTIVITY SCHEDULE,No,3.8200E-008,0.6,2.5,0.6,2.5,0.6,2.5,0.6,2.5,0.6,2.5,
 People Internal Gains Nominal, F2 NE APARTMENT PEOPLE,OCC_APT_SCH,F2 NE APARTMENT,88.25,2.5,2.5,2.833E-002,35.299,0.300,0.700,AutoCalculate,ACTIVITY SCHEDULE,No,3.8200E-008,0.6,2.5,0.6,2.5,0.6,2.5,0.6,2.5,0.6,2.5,
 People Internal Gains Nominal, F2 N1 APARTMENT PEOPLE,OCC_APT_SCH,F2 N1 APARTMENT,88.25,2.5,2.5,2.833E-002,35.299,0.300,0.700,AutoCalculate,ACTIVITY SCHEDULE,No,3.8200E-008,0.6,2.5,0.6,2.5,0.6,2.5,0.6,2.5,0.6,2.5,
 People Internal Gains Nominal, F2 N2 APARTMENT PEOPLE,OCC_APT_SCH,F2 N2 APARTMENT,88.25,2.5,2.5,2.833E-002,35.299,0.300,0.700,AutoCalculate,ACTIVITY SCHEDULE,No,3.8200E-008,0.6,2.5,0.6,2.5,0.6,2.5,0.6,2.5,0.6,2.5,
 People Internal Gains Nominal, F2 S1 APARTMENT PEOPLE,OCC_APT_SCH,F2 S1 APARTMENT,88.25,2.5,2.5,2.833E-002,35.299,0.300,0.700,AutoCalculate,ACTIVITY SCHEDULE,No,3.8200E-008,0.6,2.5,0.6,2.5,0.6,2.5,0.6,2.5,0.6,2.5,
 People Internal Gains Nominal, F2 S2 APARTMENT PEOPLE,OCC_APT_SCH,F2 S2 APARTMENT,88.25,2.5,2.5,2.833E-002,35.299,0.300,0.700,AutoCalculate,ACTIVITY SCHEDULE,No,3.8200E-008,0.6,2.5,0.6,2.5,0.6,2.5,0.6,2.5,0.6,2.5,
 People Internal Gains Nominal, F3 SW APARTMENT PEOPLE,OCC_APT_SCH,F3 SW APARTMENT,88.25,2.5,2.5,2.833E-002,35.299,0.300,0.700,AutoCalculate,ACTIVITY SCHEDULE,No,3.8200E-008,0.6,2.5,0.6,2.5,0.6,2.5,0.6,2.5,0.6,2.5,
 People Internal Gains Nominal, F3 NW APARTMENT PEOPLE,OCC_APT_SCH,F3 NW APARTMENT,88.25,2.5,2.5,2.833E-002,35.299,0.300,0.700,AutoCalculate,ACTIVITY SCHEDULE,No,3.8200E-008,0.6,2.5,0.6,2.5,0.6,2.5,0.6,2.5,0.6,2.5,
 People Internal Gains Nominal, F3 SE APARTMENT PEOPLE,OCC_APT_SCH,F3 SE APARTMENT,88.25,2.5,2.5,2.833E-002,35.299,0.300,0.700,AutoCalculate,ACTIVITY SCHEDULE,No,3.8200E-008,0.6,2.5,0.6,2.5,0.6,2.5,0.6,2.5,0.6,2.5,
 People Internal Gains Nominal, F3 NE APARTMENT PEOPLE,OCC_APT_SCH,F3 NE APARTMENT,88.25,2.5,2.5,2.833E-002,35.299,0.300,0.700,AutoCalculate,ACTIVITY SCHEDULE,No,3.8200E-008,0.6,2.5,0.6,2.5,0.6,2.5,0.6,2.5,0.6,2.5,
 People Internal Gains Nominal, F3 N1 APARTMENT PEOPLE,OCC_APT_SCH,F3 N1 APARTMENT,88.25,2.5,2.5,2.833E-002,35.299,0.300,0.700,AutoCalculate,ACTIVITY SCHEDULE,No,3.8200E-008,0.6,2.5,0.6,2.5,0.6,2.5,0.6,2.5,0.6,2.5,
 People Internal Gains Nominal, F3 N2 APARTMENT PEOPLE,OCC_APT_SCH,F3 N2 APARTMENT,88.25,2.5,2.5,2.833E-002,35.299,0.300,0.700,AutoCalculate,ACTIVITY SCHEDULE,No,3.8200E-008,0.6,2.5,0.6,2.5,0.6,2.5,0.6,2.5,0.6,2.5,
 People Internal Gains Nominal, F3 S1 APARTMENT PEOPLE,OCC_APT_SCH,F3 S1 APARTMENT,88.25,2.5,2.5,2.833E-002,35.299,0.300,0.700,AutoCalculate,ACTIVITY SCHEDULE,No,3.8200E-008,0.6,2.5,0.6,2.5,0.6,2.5,0.6,2.5,0.6,2.5,
 People Internal Gains Nominal, F3 S2 APARTMENT PEOPLE,OCC_APT_SCH,F3 S2 APARTMENT,88.25,2.5,2.5,2.833E-002,35.299,0.300,0.700,AutoCalculate,ACTIVITY SCHEDULE,No,3.8200E-008,0.6,2.5,0.6,2.5,0.6,2.5,0.6,2.5,0.6,2.5,
 People Internal Gains Nominal, F4 SW APARTMENT PEOPLE,OCC_APT_SCH,F4 SW APARTMENT,88.25,2.5,2.5,2.833E-002,35.299,0.300,0.700,AutoCalculate,ACTIVITY SCHEDULE,No,3.8200E-008,0.6,2.5,0.6,2.5,0.6,2.5,0.6,2.5,0.6,2.5,
 People Internal Gains Nominal, F4 NW APARTMENT PEOPLE,OCC_APT_SCH,F4 NW APARTMENT,88.25,2.5,2.5,2.833E-002,35.299,0.300,0.700,AutoCalculate,ACTIVITY SCHEDULE,No,3.8200E-008,0.6,2.5,0.6,2.5,0.6,2.5,0.6,2.5,0.6,2.5,
 People Internal Gains Nominal, F4 SE APARTMENT PEOPLE,OCC_APT_SCH,F4 SE APARTMENT,88.25,2.5,2.5,2.833E-002,35.299,0.300,0.700,AutoCalculate,ACTIVITY SCHEDULE,No,3.8200E-008,0.6,2.5,0.6,2.5,0.6,2.5,0.6,2.5,0.6,2.5,
 People Internal Gains Nominal, F4 NE APARTMENT PEOPLE,OCC_APT_SCH,F4 NE APARTMENT,88.25,2.5,2.5,2.833E-002,35.299,0.300,0.700,AutoCalculate,ACTIVITY SCHEDULE,No,3.8200E-008,0.6,2.5,0.6,2.5,0.6,2.5,0.6,2.5,0.6,2.5,
 People Internal Gains Nominal, F4 N1 APARTMENT PEOPLE,OCC_APT_SCH,F4 N1 APARTMENT,88.25,2.5,2.5,2.833E-002,35.299,0.300,0.700,AutoCalculate,ACTIVITY SCHEDULE,No,3.8200E-008,0.6,2.5,0.6,2.5,0.6,2.5,0.6,2.5,0.6,2.5,
 People Internal Gains Nominal, F4 N2 APARTMENT PEOPLE,OCC_APT_SCH,F4 N2 APARTMENT,88.25,2.5,2.5,2.833E-002,35.299,0.300,0.700,AutoCalculate,ACTIVITY SCHEDULE,No,3.8200E-008,0.6,2.5,0.6,2.5,0.6,2.5,0.6,2.5,0.6,2.5,
 People Internal Gains Nominal, F4 S1 APARTMENT PEOPLE,OCC_APT_SCH,F4 S1 APARTMENT,88.25,2.5,2.5,2.833E-002,35.299,0.300,0.700,AutoCalculate,ACTIVITY SCHEDULE,No,3.8200E-008,0.6,2.5,0.6,2.5,0.6,2.5,0.6,2.5,0.6,2.5,
 People Internal Gains Nominal, F4 S2 APARTMENT PEOPLE,OCC_APT_SCH,F4 S2 APARTMENT,88.25,2.5,2.5,2.833E-002,35.299,0.300,0.700,AutoCalculate,ACTIVITY SCHEDULE,No,3.8200E-008,0.6,2.5,0.6,2.5,0.6,2.5,0.6,2.5,0.6,2.5,
 People Internal Gains Nominal, M SW APARTMENT PEOPLE,OCC_APT_SCH,M SW APARTMENT,88.25,2.5,2.5,2.833E-002,35.299,0.300,0.700,AutoCalculate,ACTIVITY SCHEDULE,No,3.8200E-008,0.6,2.5,0.6,2.5,0.6,2.5,0.6,2.5,0.6,2.5,
 People Internal Gains Nominal, M NW APARTMENT PEOPLE,OCC_APT_SCH,M NW APARTMENT,88.25,2.5,2.5,2.833E-002,35.299,0.300,0.700,AutoCalculate,ACTIVITY SCHEDULE,No,3.8200E-008,0.6,2.5,0.6,2.5,0.6,2.5,0.6,2.5,0.6,2.5,
 People Internal Gains Nominal, M SE APARTMENT PEOPLE,OCC_APT_SCH,M SE APARTMENT,88.25,2.5,2.5,2.833E-002,35.299,0.300,0.700,AutoCalculate,ACTIVITY SCHEDULE,No,3.8200E-008,0.6,2.5,0.6,2.5,0.6,2.5,0.6,2.5,0.6,2.5,
 People Internal Gains Nominal, M NE APARTMENT PEOPLE,OCC_APT_SCH,M NE APARTMENT,88.25,2.5,2.5,2.833E-002,35.299,0.300,0.700,AutoCalculate,ACTIVITY SCHEDULE,No,3.8200E-008,0.6,2.5,0.6,2.5,0.6,2.5,0.6,2.5,0.6,2.5,
 People Internal Gains Nominal, M N1 APARTMENT PEOPLE,OCC_APT_SCH,M N1 APARTMENT,88.25,2.5,2.5,2.833E-002,35.299,0.300,0.700,AutoCalculate,ACTIVITY SCHEDULE,No,3.8200E-008,0.6,2.5,0.6,2.5,0.6,2.5,0.6,2.5,0.6,2.5,
 People Internal Gains Nominal, M N2 APARTMENT PEOPLE,OCC_APT_SCH,M N2 APARTMENT,88.25,2.5,2.5,2.833E-002,35.299,0.300,0.700,AutoCalculate,ACTIVITY SCHEDULE,No,3.8200E-008,0.6,2.5,0.6,2.5,0.6,2.5,0.6,2.5,0.6,2.5,
 People Internal Gains Nominal, M S1 APARTMENT PEOPLE,OCC_APT_SCH,M S1 APARTMENT,88.25,2.5,2.5,2.833E-002,35.299,0.300,0.700,AutoCalculate,ACTIVITY SCHEDULE,No,3.8200E-008,0.6,2.5,0.6,2.5,0.6,2.5,0.6,2.5,0.6,2.5,
 People Internal Gains Nominal, M S2 APARTMENT PEOPLE,OCC_APT_SCH,M S2 APARTMENT,88.25,2.5,2.5,2.833E-002,35.299,0.300,0.700,AutoCalculate,ACTIVITY SCHEDULE,No,3.8200E-008,0.6,2.5,0.6,2.5,0.6,2.5,0.6,2.5,0.6,2.5,
 People Internal Gains Nominal, F6 SW APARTMENT PEOPLE,OCC_APT_SCH,F6 SW APARTMENT,88.25,2.5,2.5,2.833E-002,35.299,0.300,0.700,AutoCalculate,ACTIVITY SCHEDULE,No,3.8200E-008,0.6,2.5,0.6,2.5,0.6,2.5,0.6,2.5,0.6,2.5,
 People Internal Gains Nominal, F6 NW APARTMENT PEOPLE,OCC_APT_SCH,F6 NW APARTMENT,88.25,2.5,2.5,2.833E-002,35.299,0.300,0.700,AutoCalculate,ACTIVITY SCHEDULE,No,3.8200E-008,0.6,2.5,0.6,2.5,0.6,2.5,0.6,2.5,0.6,2.5,
 People Internal Gains Nominal, F6 SE APARTMENT PEOPLE,OCC_APT_SCH,F6 SE APARTMENT,88.25,2.5,2.5,2.833E-002,35.299,0.300,0.700,AutoCalculate,ACTIVITY SCHEDULE,No,3.8200E-008,0.6,2.5,0.6,2.5,0.6,2.5,0.6,2.5,0.6,2.5,
 People Internal Gains Nominal, F6 NE APARTMENT PEOPLE,OCC_APT_SCH,F6 NE APARTMENT,88.25,2.5,2.5,2.833E-002,35.299,0.300,0.700,AutoCalculate,ACTIVITY SCHEDULE,No,3.8200E-008,0.6,2.5,0.6,2.5,0.6,2.5,0.6,2.5,0.6,2.5,
 People Internal Gains Nominal, F6 N1 APARTMENT PEOPLE,OCC_APT_SCH,F6 N1 APARTMENT,88.25,2.5,2.5,2.833E-002,35.299,0.300,0.700,AutoCalculate,ACTIVITY SCHEDULE,No,3.8200E-008,0.6,2.5,0.6,2.5,0.6,2.5,0.6,2.5,0.6,2.5,
 People Internal Gains Nominal, F6 N2 APARTMENT PEOPLE,OCC_APT_SCH,F6 N2 APARTMENT,88.25,2.5,2.5,2.833E-002,35.299,0.300,0.700,AutoCalculate,ACTIVITY SCHEDULE,No,3.8200E-008,0.6,2.5,0.6,2.5,0.6,2.5,0.6,2.5,0.6,2.5,
 People Internal Gains Nominal, F6 S1 APARTMENT PEOPLE,OCC_APT_SCH,F6 S1 APARTMENT,88.25,2.5,2.5,2.833E-002,35.299,0.300,0.700,AutoCalculate,ACTIVITY SCHEDULE,No,3.8200E-008,0.6,2.5,0.6,2.5,0.6,2.5,0.6,2.5,0.6,2.5,
 People Internal Gains Nominal, F6 S2 APARTMENT PEOPLE,OCC_APT_SCH,F6 S2 APARTMENT,88.25,2.5,2.5,2.833E-002,35.299,0.300,0.700,AutoCalculate,ACTIVITY SCHEDULE,No,3.8200E-008,0.6,2.5,0.6,2.5,0.6,2.5,0.6,2.5,0.6,2.5,
 People Internal Gains Nominal, F7 SW APARTMENT PEOPLE,OCC_APT_SCH,F7 SW APARTMENT,88.25,2.5,2.5,2.833E-002,35.299,0.300,0.700,AutoCalculate,ACTIVITY SCHEDULE,No,3.8200E-008,0.6,2.5,0.6,2.5,0.6,2.5,0.6,2.5,0.6,2.5,
 People Internal Gains Nominal, F7 NW APARTMENT PEOPLE,OCC_APT_SCH,F7 NW APARTMENT,88.25,2.5,2.5,2.833E-002,35.299,0.300,0.700,AutoCalculate,ACTIVITY SCHEDULE,No,3.8200E-008,0.6,2.5,0.6,2.5,0.6,2.5,0.6,2.5,0.6,2.5,
 People Internal Gains Nominal, F7 SE APARTMENT PEOPLE,OCC_APT_SCH,F7 SE APARTMENT,88.25,2.5,2.5,2.833E-002,35.299,0.300,0.700,AutoCalculate,ACTIVITY SCHEDULE,No,3.8200E-008,0.6,2.5,0.6,2.5,0.6,2.5,0.6,2.5,0.6,2.5,
 People Internal Gains Nominal, F7 NE APARTMENT PEOPLE,OCC_APT_SCH,F7 NE APARTMENT,88.25,2.5,2.5,2.833E-002,35.299,0.300,0.700,AutoCalculate,ACTIVITY SCHEDULE,No,3.8200E-008,0.6,2.5,0.6,2.5,0.6,2.5,0.6,2.5,0.6,2.5,
 People Internal Gains Nominal, F7 N1 APARTMENT PEOPLE,OCC_APT_SCH,F7 N1 APARTMENT,88.25,2.5,2.5,2.833E-002,35.299,0.300,0.700,AutoCalculate,ACTIVITY SCHEDULE,No,3.8200E-008,0.6,2.5,0.6,2.5,0.6,2.5,0.6,2.5,0.6,2.5,
 People Internal Gains Nominal, F7 N2 APARTMENT PEOPLE,OCC_APT_SCH,F7 N2 APARTMENT,88.25,2.5,2.5,2.833E-002,35.299,0.300,0.700,AutoCalculate,ACTIVITY SCHEDULE,No,3.8200E-008,0.6,2.5,0.6,2.5,0.6,2.5,0.6,2.5,0.6,2.5,
 People Internal Gains Nominal, F7 S1 APARTMENT PEOPLE,OCC_APT_SCH,F7 S1 APARTMENT,88.25,2.5,2.5,2.833E-002,35.299,0.300,0.700,AutoCalculate,ACTIVITY SCHEDULE,No,3.8200E-008,0.6,2.5,0.6,2.5,0.6,2.5,0.6,2.5,0.6,2.5,
 People Internal Gains Nominal, F7 S2 APARTMENT PEOPLE,OCC_APT_SCH,F7 S2 APARTMENT,88.25,2.5,2.5,2.833E-002,35.299,0.300,0.700,AutoCalculate,ACTIVITY SCHEDULE,No,3.8200E-008,0.6,2.5,0.6,2.5,0.6,2.5,0.6,2.5,0.6,2.5,
 People Internal Gains Nominal, F8 SW APARTMENT PEOPLE,OCC_APT_SCH,F8 SW APARTMENT,88.25,2.5,2.5,2.833E-002,35.299,0.300,0.700,AutoCalculate,ACTIVITY SCHEDULE,No,3.8200E-008,0.6,2.5,0.6,2.5,0.6,2.5,0.6,2.5,0.6,2.5,
 People Internal Gains Nominal, F8 NW APARTMENT PEOPLE,OCC_APT_SCH,F8 NW APARTMENT,88.25,2.5,2.5,2.833E-002,35.299,0.300,0.700,AutoCalculate,ACTIVITY SCHEDULE,No,3.8200E-008,0.6,2.5,0.6,2.5,0.6,2.5,0.6,2.5,0.6,2.5,
 People Internal Gains Nominal, F8 SE APARTMENT PEOPLE,OCC_APT_SCH,F8 SE APARTMENT,88.25,2.5,2.5,2.833E-002,35.299,0.300,0.700,AutoCalculate,ACTIVITY SCHEDULE,No,3.8200E-008,0.6,2.5,0.6,2.5,0.6,2.5,0.6,2.5,0.6,2.5,
 People Internal Gains Nominal, F8 NE APARTMENT PEOPLE,OCC_APT_SCH,F8 NE APARTMENT,88.25,2.5,2.5,2.833E-002,35.299,0.300,0.700,AutoCalculate,ACTIVITY SCHEDULE,No,3.8200E-008,0.6,2.5,0.6,2.5,0.6,2.5,0.6,2.5,0.6,2.5,
 People Internal Gains Nominal, F8 N1 APARTMENT PEOPLE,OCC_APT_SCH,F8 N1 APARTMENT,88.25,2.5,2.5,2.833E-002,35.299,0.300,0.700,AutoCalculate,ACTIVITY SCHEDULE,No,3.8200E-008,0.6,2.5,0.6,2.5,0.6,2.5,0.6,2.5,0.6,2.5,
 People Internal Gains Nominal, F8 N2 APARTMENT PEOPLE,OCC_APT_SCH,F8 N2 APARTMENT,88.25,2.5,2.5,2.833E-002,35.299,0.300,0.700,AutoCalculate,ACTIVITY SCHEDULE,No,3.8200E-008,0.6,2.5,0.6,2.5,0.6,2.5,0.6,2.5,0.6,2.5,
 People Internal Gains Nominal, F8 S1 APARTMENT PEOPLE,OCC_APT_SCH,F8 S1 APARTMENT,88.25,2.5,2.5,2.833E-002,35.299,0.300,0.700,AutoCalculate,ACTIVITY SCHEDULE,No,3.8200E-008,0.6,2.5,0.6,2.5,0.6,2.5,0.6,2.5,0.6,2.5,
 People Internal Gains Nominal, F8 S2 APARTMENT PEOPLE,OCC_APT_SCH,F8 S2 APARTMENT,88.25,2.5,2.5,2.833E-002,35.299,0.300,0.700,AutoCalculate,ACTIVITY SCHEDULE,No,3.8200E-008,0.6,2.5,0.6,2.5,0.6,2.5,0.6,2.5,0.6,2.5,
 People Internal Gains Nominal, F9 SW APARTMENT PEOPLE,OCC_APT_SCH,F9 SW APARTMENT,88.25,2.5,2.5,2.833E-002,35.299,0.300,0.700,AutoCalculate,ACTIVITY SCHEDULE,No,3.8200E-008,0.6,2.5,0.6,2.5,0.6,2.5,0.6,2.5,0.6,2.5,
 People Internal Gains Nominal, F9 NW APARTMENT PEOPLE,OCC_APT_SCH,F9 NW APARTMENT,88.25,2.5,2.5,2.833E-002,35.299,0.300,0.700,AutoCalculate,ACTIVITY SCHEDULE,No,3.8200E-008,0.6,2.5,0.6,2.5,0.6,2.5,0.6,2.5,0.6,2.5,
 People Internal Gains Nominal, F9 SE APARTMENT PEOPLE,OCC_APT_SCH,F9 SE APARTMENT,88.25,2.5,2.5,2.833E-002,35.299,0.300,0.700,AutoCalculate,ACTIVITY SCHEDULE,No,3.8200E-008,0.6,2.5,0.6,2.5,0.6,2.5,0.6,2.5,0.6,2.5,
 People Internal Gains Nominal, F9 NE APARTMENT PEOPLE,OCC_APT_SCH,F9 NE APARTMENT,88.25,2.5,2.5,2.833E-002,35.299,0.300,0.700,AutoCalculate,ACTIVITY SCHEDULE,No,3.8200E-008,0.6,2.5,0.6,2.5,0.6,2.5,0.6,2.5,0.6,2.5,
 People Internal Gains Nominal, F9 N1 APARTMENT PEOPLE,OCC_APT_SCH,F9 N1 APARTMENT,88.25,2.5,2.5,2.833E-002,35.299,0.300,0.700,AutoCalculate,ACTIVITY SCHEDULE,No,3.8200E-008,0.6,2.5,0.6,2.5,0.6,2.5,0.6,2.5,0.6,2.5,
 People Internal Gains Nominal, F9 N2 APARTMENT PEOPLE,OCC_APT_SCH,F9 N2 APARTMENT,88.25,2.5,2.5,2.833E-002,35.299,0.300,0.700,AutoCalculate,ACTIVITY SCHEDULE,No,3.8200E-008,0.6,2.5,0.6,2.5,0.6,2.5,0.6,2.5,0.6,2.5,
 People Internal Gains Nominal, F9 S1 APARTMENT PEOPLE,OCC_APT_SCH,F9 S1 APARTMENT,88.25,2.5,2.5,2.833E-002,35.299,0.300,0.700,AutoCalculate,ACTIVITY SCHEDULE,No,3.8200E-008,0.6,2.5,0.6,2.5,0.6,2.5,0.6,2.5,0.6,2.5,
 People Internal Gains Nominal, F9 S2 APARTMENT PEOPLE,OCC_APT_SCH,F9 S2 APARTMENT,88.25,2.5,2.5,2.833E-002,35.299,0.300,0.700,AutoCalculate,ACTIVITY SCHEDULE,No,3.8200E-008,0.6,2.5,0.6,2.5,0.6,2.5,0.6,2.5,0.6,2.5,
 People Internal Gains Nominal, T SW APARTMENT PEOPLE,OCC_APT_SCH,T SW APARTMENT,88.25,2.5,2.5,2.833E-002,35.299,0.300,0.700,AutoCalculate,ACTIVITY SCHEDULE,No,3.8200E-008,0.6,2.5,0.6,2.5,0.6,2.5,0.6,2.5,0.6,2.5,
 People Internal Gains Nominal, T NW APARTMENT PEOPLE,OCC_APT_SCH,T NW APARTMENT,88.25,2.5,2.5,2.833E-002,35.299,0.300,0.700,AutoCalculate,ACTIVITY SCHEDULE,No,3.8200E-008,0.6,2.5,0.6,2.5,0.6,2.5,0.6,2.5,0.6,2.5,
 People Internal Gains Nominal, T SE APARTMENT PEOPLE,OCC_APT_SCH,T SE APARTMENT,88.25,2.5,2.5,2.833E-002,35.299,0.300,0.700,AutoCalculate,ACTIVITY SCHEDULE,No,3.8200E-008,0.6,2.5,0.6,2.5,0.6,2.5,0.6,2.5,0.6,2.5,
 People Internal Gains Nominal, T NE APARTMENT PEOPLE,OCC_APT_SCH,T NE APARTMENT,88.25,2.5,2.5,2.833E-002,35.299,0.300,0.700,AutoCalculate,ACTIVITY SCHEDULE,No,3.8200E-008,0.6,2.5,0.6,2.5,0.6,2.5,0.6,2.5,0.6,2.5,
 People Internal Gains Nominal, T N1 APARTMENT PEOPLE,OCC_APT_SCH,T N1 APARTMENT,88.25,2.5,2.5,2.833E-002,35.299,0.300,0.700,AutoCalculate,ACTIVITY SCHEDULE,No,3.8200E-008,0.6,2.5,0.6,2.5,0.6,2.5,0.6,2.5,0.6,2.5,
 People Internal Gains Nominal, T N2 APARTMENT PEOPLE,OCC_APT_SCH,T N2 APARTMENT,88.25,2.5,2.5,2.833E-002,35.299,0.300,0.700,AutoCalculate,ACTIVITY SCHEDULE,No,3.8200E-008,0.6,2.5,0.6,2.5,0.6,2.5,0.6,2.5,0.6,2.5,
 People Internal Gains Nominal, T S1 APARTMENT PEOPLE,OCC_APT_SCH,T S1 APARTMENT,88.25,2.5,2.5,2.833E-002,35.299,0.300,0.700,AutoCalculate,ACTIVITY SCHEDULE,No,3.8200E-008,0.6,2.5,0.6,2.5,0.6,2.5,0.6,2.5,0.6,2.5,
 People Internal Gains Nominal, T S2 APARTMENT PEOPLE,OCC_APT_SCH,T S2 APARTMENT,88.25,2.5,2.5,2.833E-002,35.299,0.300,0.700,AutoCalculate,ACTIVITY SCHEDULE,No,3.8200E-008,0.6,2.5,0.6,2.5,0.6,2.5,0.6,2.5,0.6,2.5,
! <Lights Internal Gains Nominal>,Name,Schedule Name,Zone Name,Zone Floor Area {m2},# Zone Occupants,Lighting Level {W},Lights/Floor Area {W/m2},Lights per person {W/person},Fraction Return Air,Fraction Radiant,Fraction Short Wave,Fraction Convected,Fraction Replaceable,End-Use, Minimum Lighting Level for All Day Types {W},Maximum Lighting Level for All Day Types {W},Minimum Lighting Level for Weekdays {W}, Maximum Lighting Level for Weekdays {W},Minimum Lighting Level for Weekends/Holidays {W}, Maximum Lighting Level for Weekends /Holidays {W},Minimum Lighting Level for Summer Design Days {W}, Maximum Lighting Level for Summer Design Days {W},Minimum Lighting Level for Winter Design Days {W}, Maximum Lighting Level for Winter Design Days {W}
 Lights Internal Gains Nominal, G SW APARTMENT_LIGHTS_HARDWIRED,LTG_APT_SCH,G SW APARTMENT,88.25,2.5,569.941,6.458,227.976,0.000,0.600,0.200,0.200,1.000,LightsWired,6.449,103.191,6.449,103.2,6.449,103.191,6.449,103.191,6.449,103.191
 Lights Internal Gains Nominal, G NW APARTMENT_LIGHTS_HARDWIRED,LTG_APT_SCH,G NW APARTMENT,88.25,2.5,569.941,6.458,227.976,0.000,0.600,0.200,0.200,1.000,LightsWired,6.449,103.191,6.449,103.2,6.449,103.191,6.449,103.191,6.449,103.191
 Lights Internal Gains Nominal, OFFICE_LIGHTS_HARDWIRED,LTG_OFF_SCH,OFFICE,88.25,1.0,702.927,7.965,702.927,0.000,0.600,0.200,0.200,1.000,LightsWired,0.000,702.927,126.527,540.8,126.527,126.527,702.927,702.927,0.000,0.000
 Lights Internal Gains Nominal, G NE APARTMENT_LIGHTS_HARDWIRED,LTG_APT_SCH,G NE APARTMENT,88.25,2.5,569.941,6.458,227.976,0.000,0.600,0.200,0.200,1.000,LightsWired,6.449,103.191,6.449,103.2,6.449,103.191,6.449,103.191,6.449,103.191
 Lights Internal Gains Nominal, G N1 APARTMENT_LIGHTS_HARDWIRED,LTG_APT_SCH,G N1 APARTMENT,88.25,2.5,569.941,6.458,227.976,0.000,0.600,0.200,0.200,1.000,LightsWired,6.449,103.191,6.449,103.2,6.449,103.191,6.449,103.191,6.449,103.191
 Lights Internal Gains Nominal, G N2 APARTMENT_LIGHTS_HARDWIRED,LTG_APT_SCH,G N2 APARTMENT,88.25,2.5,569.941,6.458,227.976,0.000,0.600,0.200,0.200,1.000,LightsWired,6.449,103.191,6.449,103.2,6.449,103.191,6.449,103.191,6.449,103.191
 Lights Internal Gains Nominal, G S1 APARTMENT_LIGHTS_HARDWIRED,LTG_APT_SCH,G S1 APARTMENT,88.25,2.5,569.941,6.458,227.976,0.000,0.600,0.200,0.200,1.000,LightsWired,6.449,103.191,6.449,103.2,6.449,103.191,6.449,103.191,6.449,103.191
 Lights Internal Gains Nominal, G S2 APARTMENT_LIGHTS_HARDWIRED,LTG_APT_SCH,G S2 APARTMENT,88.25,2.5,569.941,6.458,227.976,0.000,0.600,0.200,0.200,1.000,LightsWired,6.449,103.191,6.449,103.2,6.449,103.191,6.449,103.191,6.449,103.191
 Lights Internal Gains Nominal, G CORRIDOR_LIGHTS_HARDWIRED,LTG_COR_SCH,G CORRIDOR,77.66,0.0,411.267,5.296,N/A,0.000,0.600,0.200,0.200,1.000,LightsWired,237.250,237.250,237.250,237.2,237.250,237.250,237.250,237.250,237.250,237.250
 Lights Internal Gains Nominal, F2 SW APARTMENT_LIGHTS_HARDWIRED,LTG_APT_SCH,F2 SW APARTMENT,88.25,2.5,569.941,6.458,227.976,0.000,0.600,0.200,0.200,1.000,LightsWired,6.449,103.191,6.449,103.2,6.449,103.191,6.449,103.191,6.449,103.191
 Lights Internal Gains Nominal, F2 NW APARTMENT_LIGHTS_HARDWIRED,LTG_APT_SCH,F2 NW APARTMENT,88.25,2.5,569.941,6.458,227.976,0.000,0.600,0.200,0.200,1.000,LightsWired,6.449,103.191,6.449,103.2,6.449,103.191,6.449,103.191,6.449,103.191
 Lights Internal Gains Nominal, F2 SE APARTMENT_LIGHTS_HARDWIRED,LTG_APT_SCH,F2 SE APARTMENT,88.25,2.5,569.941,6.458,227.976,0.000,0.600,0.200,0.200,1.000,LightsWired,6.449,103.191,6.449,103.2,6.449,103.191,6.449,103.191,6.449,103.191
 Lights Internal Gains Nominal, F2 NE APARTMENT_LIGHTS_HARDWIRED,LTG_APT_SCH,F2 NE APARTMENT,88.25,2.5,569.941,6.458,227.976,0.000,0.600,0.200,0.200,1.000,LightsWired,6.449,103.191,6.449,103.2,6.449,103.191,6.449,103.191,6.449,103.191
 Lights Internal Gains Nominal, F2 N1 APARTMENT_LIGHTS_HARDWIRED,LTG_APT_SCH,F2 N1 APARTMENT,88.25,2.5,569.941,6.458,227.976,0.000,0.600,0.200,0.200,1.000,LightsWired,6.449,103.191,6.449,103.2,6.449,103.191,6.449,103.191,6.449,103.191
 Lights Internal Gains Nominal, F2 N2 APARTMENT_LIGHTS_HARDWIRED,LTG_APT_SCH,F2 N2 APARTMENT,88.25,2.5,569.941,6.458,227.976,0.000,0.600,0.200,0.200,1.000,LightsWired,6.449,103.191,6.449,103.2,6.449,103.191,6.449,103.191,6.449,103.191
 Lights Internal Gains Nominal, F2 S1 APARTMENT_LIGHTS_HARDWIRED,LTG_APT_SCH,F2 S1 APARTMENT,88.25,2.5,569.941,6.458,227.976,0.000,0.600,0.200,0.200,1.000,LightsWired,6.449,103.191,6.449,103.2,6.449,103.191,6.449,103.191,6.449,103.191
 Lights Internal Gains Nominal, F2 S2 APARTMENT_LIGHTS_HARDWIRED,LTG_APT_SCH,F2 S2 APARTMENT,88.25,2.5,569.941,6.458,227.976,0.000,0.600,0.200,0.200,1.000,LightsWired,6.449,103.191,6.449,103.2,6.449,103.191,6.449,103.191,6.449,103.191
 Lights Internal Gains Nominal, F2 CORRIDOR_LIGHTS_HARDWIRED,LTG_COR_SCH,F2 CORRIDOR,77.66,0.0,411.267,5.296,N/A,0.000,0.600,0.200,0.200,1.000,LightsWired,237.250,237.250,237.250,237.2,237.250,237.250,237.250,237.250,237.250,237.250
 Lights Internal Gains Nominal, F3 SW APARTMENT_LIGHTS_HARDWIRED,LTG_APT_SCH,F3 SW APARTMENT,88.25,2.5,569.941,6.458,227.976,0.000,0.600,0.200,0.200,1.000,LightsWired,6.449,103.191,6.449,103.2,6.449,103.191,6.449,103.191,6.449,103.191
 Lights Internal Gains Nominal, F3 NW APARTMENT_LIGHTS_HARDWIRED,LTG_APT_SCH,F3 NW APARTMENT,88.25,2.5,569.941,6.458,227.976,0.000,0.600,0.200,0.200,1.000,LightsWired,6.449,103.191,6.449,103.2,6.449,103.191,6.449,103.191,6.449,103.191
 Lights Internal Gains Nominal, F3 SE APARTMENT_LIGHTS_HARDWIRED,LTG_APT_SCH,F3 SE APARTMENT,88.25,2.5,569.941,6.458,227.976,0.000,0.600,0.200,0.200,1.000,LightsWired,6.449,103.191,6.449,103.2,6.449,103.191,6.449,103.191,6.449,103.191
 Lights Internal Gains Nominal, F3 NE APARTMENT_LIGHTS_HARDWIRED,LTG_APT_SCH,F3 NE APARTMENT,88.25,2.5,569.941,6.458,227.976,0.000,0.600,0.200,0.200,1.000,LightsWired,6.449,103.191,6.449,103.2,6.449,103.191,6.449,103.191,6.449,103.191
 Lights Internal Gains Nominal, F3 N1 APARTMENT_LIGHTS_HARDWIRED,LTG_APT_SCH,F3 N1 APARTMENT,88.25,2.5,569.941,6.458,227.976,0.000,0.600,0.200,0.200,1.000,LightsWired,6.449,103.191,6.449,103.2,6.449,103.191,6.449,103.191,6.449,103.191
 Lights Internal Gains Nominal, F3 N2 APARTMENT_LIGHTS_HARDWIRED,LTG_APT_SCH,F3 N2 APARTMENT,88.25,2.5,569.941,6.458,227.976,0.000,0.600,0.200,0.200,1.000,LightsWired,6.449,103.191,6.449,103.2,6.449,103.191,6.449,103.191,6.449,103.191
 Lights Internal Gains Nominal, F3 S1 APARTMENT_LIGHTS_HARDWIRED,LTG_APT_SCH,F3 S1 APARTMENT,88.25,2.5,569.941,6.458,227.976,0.000,0.600,0.200,0.200,1.000,LightsWired,6.449,103.191,6.449,103.2,6.449,103.191,6.449,103.191,6.449,103.191
 Lights Internal Gains Nominal, F3 S2 APARTMENT_LIGHTS_HARDWIRED,LTG_APT_SCH,F3 S2 APARTMENT,88.25,2.5,569.941,6.458,227.976,0.000,0.600,0.200,0.200,1.000,LightsWired,6.449,103.191,6.449,103.2,6.449,103.191,6.449,103.191,6.449,103.191
 Lights Internal Gains Nominal, F3 CORRIDOR_LIGHTS_HARDWIRED,LTG_COR_SCH,F3 CORRIDOR,77.66,0.0,411.267,5.296,N/A,0.000,0.600,0.200,0.200,1.000,LightsWired,237.250,237.250,237.250,237.2,237.250,237.250,237.250,237.250,237.250,237.250
 Lights Internal Gains Nominal, F4 SW APARTMENT_LIGHTS_HARDWIRED,LTG_APT_SCH,F4 SW APARTMENT,88.25,2.5,569.941,6.458,227.976,0.000,0.600,0.200,0.200,1.000,LightsWired,6.449,103.191,6.449,103.2,6.449,103.191,6.449,103.191,6.449,103.191
 Lights Internal Gains Nominal, F4 NW APARTMENT_LIGHTS_HARDWIRED,LTG_APT_SCH,F4 NW APARTMENT,88.25,2.5,569.941,6.458,227.976,0.000,0.600,0.200,0.200,1.000,LightsWired,6.449,103.191,6.449,103.2,6.449,103.191,6.449,103.191,6.449,103.191
 Lights Internal Gains Nominal, F4 SE APARTMENT_LIGHTS_HARDWIRED,LTG_APT_SCH,F4 SE APARTMENT,88.25,2.5,569.941,6.458,227.976,0.000,0.600,0.200,0.200,1.000,LightsWired,6.449,103.191,6.449,103.2,6.449,103.191,6.449,103.191,6.449,103.191
 Lights Internal Gains Nominal, F4 NE APARTMENT_LIGHTS_HARDWIRED,LTG_APT_SCH,F4 NE APARTMENT,88.25,2.5,569.941,6.458,227.976,0.000,0.600,0.200,0.200,1.000,LightsWired,6.449,103.191,6.449,103.2,6.449,103.191,6.449,103.191,6.449,103.191
 Lights Internal Gains Nominal, F4 N1 APARTMENT_LIGHTS_HARDWIRED,LTG_APT_SCH,F4 N1 APARTMENT,88.25,2.5,569.941,6.458,227.976,0.000,0.600,0.200,0.200,1.000,LightsWired,6.449,103.191,6.449,103.2,6.449,103.191,6.449,103.191,6.449,103.191
 Lights Internal Gains Nominal, F4 N2 APARTMENT_LIGHTS_HARDWIRED,LTG_APT_SCH,F4 N2 APARTMENT,88.25,2.5,569.941,6.458,227.976,0.000,0.600,0.200,0.200,1.000,LightsWired,6.449,103.191,6.449,103.2,6.449,103.191,6.449,103.191,6.449,103.191
 Lights Internal Gains Nominal, F4 S1 APARTMENT_LIGHTS_HARDWIRED,LTG_APT_SCH,F4 S1 APARTMENT,88.25,2.5,569.941,6.458,227.976,0.000,0.600,0.200,0.200,1.000,LightsWired,6.449,103.191,6.449,103.2,6.449,103.191,6.449,103.191,6.449,103.191
 Lights Internal Gains Nominal, F4 S2 APARTMENT_LIGHTS_HARDWIRED,LTG_APT_SCH,F4 S2 APARTMENT,88.25,2.5,569.941,6.458,227.976,0.000,0.600,0.200,0.200,1.000,LightsWired,6.449,103.191,6.449,103.2,6.449,103.191,6.449,103.191,6.449,103.191
 Lights Internal Gains Nominal, F4 CORRIDOR_LIGHTS_HARDWIRED,LTG_COR_SCH,F4 CORRIDOR,77.66,0.0,411.267,5.296,N/A,0.000,0.600,0.200,0.200,1.000,LightsWired,237.250,237.250,237.250,237.2,237.250,237.250,237.250,237.250,237.250,237.250
 Lights Internal Gains Nominal, M SW APARTMENT_LIGHTS_HARDWIRED,LTG_APT_SCH,M SW APARTMENT,88.25,2.5,569.941,6.458,227.976,0.000,0.600,0.200,0.200,1.000,LightsWired,6.449,103.191,6.449,103.2,6.449,103.191,6.449,103.191,6.449,103.191
 Lights Internal Gains Nominal, M NW APARTMENT_LIGHTS_HARDWIRED,LTG_APT_SCH,M NW APARTMENT,88.25,2.5,569.941,6.458,227.976,0.000,0.600,0.200,0.200,1.000,LightsWired,6.449,103.191,6.449,103.2,6.449,103.191,6.449,103.191,6.449,103.191
 Lights Internal Gains Nominal, M SE APARTMENT_LIGHTS_HARDWIRED,LTG_APT_SCH,M SE APARTMENT,88.25,2.5,569.941,6.458,227.976,0.000,0.600,0.200,0.200,1.000,LightsWired,6.449,103.191,6.449,103.2,6.449,103.191,6.449,103.191,6.449,103.191
 Lights Internal Gains Nominal, M NE APARTMENT_LIGHTS_HARDWIRED,LTG_APT_SCH,M NE APARTMENT,88.25,2.5,569.941,6.458,227.976,0.000,0.600,0.200,0.200,1.000,LightsWired,6.449,103.191,6.449,103.2,6.449,103.191,6.449,103.191,6.449,103.191
 Lights Internal Gains Nominal, M N1 APARTMENT_LIGHTS_HARDWIRED,LTG_APT_SCH,M N1 APARTMENT,88.25,2.5,569.941,6.458,227.976,0.000,0.600,0.200,0.200,1.000,LightsWired,6.449,103.191,6.449,103.2,6.449,103.191,6.449,103.191,6.449,103.191
 Lights Internal Gains Nominal, M N2 APARTMENT_LIGHTS_HARDWIRED,LTG_APT_SCH,M N2 APARTMENT,88.25,2.5,569.941,6.458,227.976,0.000,0.600,0.200,0.200,1.000,LightsWired,6.449,103.191,6.449,103.2,6.449,103.191,6.449,103.191,6.449,103.191
 Lights Internal Gains Nominal, M S1 APARTMENT_LIGHTS_HARDWIRED,LTG_APT_SCH,M S1 APARTMENT,88.25,2.5,569.941,6.458,227.976,0.000,0.600,0.200,0.200,1.000,LightsWired,6.449,103.191,6.449,103.2,6.449,103.191,6.449,103.191,6.449,103.191
 Lights Internal Gains Nominal, M S2 APARTMENT_LIGHTS_HARDWIRED,LTG_APT_SCH,M S2 APARTMENT,88.25,2.5,569.941,6.458,227.976,0.000,0.600,0.200,0.200,1.000,LightsWired,6.449,103.191,6.449,103.2,6.449,103.191,6.449,103.191,6.449,103.191
 Lights Internal Gains Nominal, M CORRIDOR_LIGHTS_HARDWIRED,LTG_COR_SCH,M CORRIDOR,77.66,0.0,411.267,5.296,N/A,0.000,0.600,0.200,0.200,1.000,LightsWired,237.250,237.250,237.250,237.2,237.250,237.250,237.250,237.250,237.250,237.250
 Lights Internal Gains Nominal, F6 SW APARTMENT_LIGHTS_HARDWIRED,LTG_APT_SCH,F6 SW APARTMENT,88.25,2.5,569.941,6.458,227.976,0.000,0.600,0.200,0.200,1.000,LightsWired,6.449,103.191,6.449,103.2,6.449,103.191,6.449,103.191,6.449,103.191
 Lights Internal Gains Nominal, F6 NW APARTMENT_LIGHTS_HARDWIRED,LTG_APT_SCH,F6 NW APARTMENT,88.25,2.5,569.941,6.458,227.976,0.000,0.600,0.200,0.200,1.000,LightsWired,6.449,103.191,6.449,103.2,6.449,103.191,6.449,103.191,6.449,103.191
 Lights Internal Gains Nominal, F6 SE APARTMENT_LIGHTS_HARDWIRED,LTG_APT_SCH,F6 SE APARTMENT,88.25,2.5,569.941,6.458,227.976,0.000,0.600,0.200,0.200,1.000,LightsWired,6.449,103.191,6.449,103.2,6.449,103.191,6.449,103.191,6.449,103.191
 Lights Internal Gains Nominal, F6 NE APARTMENT_LIGHTS_HARDWIRED,LTG_APT_SCH,F6 NE APARTMENT,88.25,2.5,569.941,6.458,227.976,0.000,0.600,0.200,0.200,1.000,LightsWired,6.449,103.191,6.449,103.2,6.449,103.191,6.449,103.191,6.449,103.191
 Lights Internal Gains Nominal, F6 N1 APARTMENT_LIGHTS_HARDWIRED,LTG_APT_SCH,F6 N1 APARTMENT,88.25,2.5,569.941,6.458,227.976,0.000,0.600,0.200,0.200,1.000,LightsWired,6.449,103.191,6.449,103.2,6.449,103.191,6.449,103.191,6.449,103.191
 Lights Internal Gains Nominal, F6 N2 APARTMENT_LIGHTS_HARDWIRED,LTG_APT_SCH,F6 N2 APARTMENT,88.25,2.5,569.941,6.458,227.976,0.000,0.600,0.200,0.200,1.000,LightsWired,6.449,103.191,6.449,103.2,6.449,103.191,6.449,103.191,6.449,103.191
 Lights Internal Gains Nominal, F6 S1 APARTMENT_LIGHTS_HARDWIRED,LTG_APT_SCH,F6 S1 APARTMENT,88.25,2.5,569.941,6.458,227.976,0.000,0.600,0.200,0.200,1.000,LightsWired,6.449,103.191,6.449,103.2,6.449,103.191,6.449,103.191,6.449,103.191
 Lights Internal Gains Nominal, F6 S2 APARTMENT_LIGHTS_HARDWIRED,LTG_APT_SCH,F6 S2 APARTMENT,88.25,2.5,569.941,6.458,227.976,0.000,0.600,0.200,0.200,1.000,LightsWired,6.449,103.191,6.449,103.2,6.449,103.191,6.449,103.191,6.449,103.191
 Lights Internal Gains Nominal, F6 CORRIDOR_LIGHTS_HARDWIRED,LTG_COR_SCH,F6 CORRIDOR,77.66,0.0,411.267,5.296,N/A,0.000,0.600,0.200,0.200,1.000,LightsWired,237.250,237.250,237.250,237.2,237.250,237.250,237.250,237.250,237.250,237.250
 Lights Internal Gains Nominal, F7 SW APARTMENT_LIGHTS_HARDWIRED,LTG_APT_SCH,F7 SW APARTMENT,88.25,2.5,569.941,6.458,227.976,0.000,0.600,0.200,0.200,1.000,LightsWired,6.449,103.191,6.449,103.2,6.449,103.191,6.449,103.191,6.449,103.191
 Lights Internal Gains Nominal, F7 NW APARTMENT_LIGHTS_HARDWIRED,LTG_APT_SCH,F7 NW APARTMENT,88.25,2.5,569.941,6.458,227.976,0.000,0.600,0.200,0.200,1.000,LightsWired,6.449,103.191,6.449,103.2,6.449,103.191,6.449,103.191,6.449,103.191
 Lights Internal Gains Nominal, F7 SE APARTMENT_LIGHTS_HARDWIRED,LTG_APT_SCH,F7 SE APARTMENT,88.25,2.5,569.941,6.458,227.976,0.000,0.600,0.200,0.200,1.000,LightsWired,6.449,103.191,6.449,103.2,6.449,103.191,6.449,103.191,6.449,103.191
 Lights Internal Gains Nominal, F7 NE APARTMENT_LIGHTS_HARDWIRED,LTG_APT_SCH,F7 NE APARTMENT,88.25,2.5,569.941,6.458,227.976,0.000,0.600,0.200,0.200,1.000,LightsWired,6.449,103.191,6.449,103.2,6.449,103.191,6.449,103.191,6.449,103.191
 Lights Internal Gains Nominal, F7 N1 APARTMENT_LIGHTS_HARDWIRED,LTG_APT_SCH,F7 N1 APARTMENT,88.25,2.5,569.941,6.458,227.976,0.000,0.600,0.200,0.200,1.000,LightsWired,6.449,103.191,6.449,103.2,6.449,103.191,6.449,103.191,6.449,103.191
 Lights Internal Gains Nominal, F7 N2 APARTMENT_LIGHTS_HARDWIRED,LTG_APT_SCH,F7 N2 APARTMENT,88.25,2.5,569.941,6.458,227.976,0.000,0.600,0.200,0.200,1.000,LightsWired,6.449,103.191,6.449,103.2,6.449,103.191,6.449,103.191,6.449,103.191
 Lights Internal Gains Nominal, F7 S1 APARTMENT_LIGHTS_HARDWIRED,LTG_APT_SCH,F7 S1 APARTMENT,88.25,2.5,569.941,6.458,227.976,0.000,0.600,0.200,0.200,1.000,LightsWired,6.449,103.191,6.449,103.2,6.449,103.191,6.449,103.191,6.449,103.191
 Lights Internal Gains Nominal, F7 S2 APARTMENT_LIGHTS_HARDWIRED,LTG_APT_SCH,F7 S2 APARTMENT,88.25,2.5,569.941,6.458,227.976,0.000,0.600,0.200,0.200,1.000,LightsWired,6.449,103.191,6.449,103.2,6.449,103.191,6.449,103.191,6.449,103.191
 Lights Internal Gains Nominal, F7 CORRIDOR_LIGHTS_HARDWIRED,LTG_COR_SCH,F7 CORRIDOR,77.66,0.0,411.267,5.296,N/A,0.000,0.600,0.200,0.200,1.000,LightsWired,237.250,237.250,237.250,237.2,237.250,237.250,237.250,237.250,237.250,237.250
 Lights Internal Gains Nominal, F8 SW APARTMENT_LIGHTS_HARDWIRED,LTG_APT_SCH,F8 SW APARTMENT,88.25,2.5,569.941,6.458,227.976,0.000,0.600,0.200,0.200,1.000,LightsWired,6.449,103.191,6.449,103.2,6.449,103.191,6.449,103.191,6.449,103.191
 Lights Internal Gains Nominal, F8 NW APARTMENT_LIGHTS_HARDWIRED,LTG_APT_SCH,F8 NW APARTMENT,88.25,2.5,569.941,6.458,227.976,0.000,0.600,0.200,0.200,1.000,LightsWired,6.449,103.191,6.449,103.2,6.449,103.191,6.449,103.191,6.449,103.191
 Lights Internal Gains Nominal, F8 SE APARTMENT_LIGHTS_HARDWIRED,LTG_APT_SCH,F8 SE APARTMENT,88.25,2.5,569.941,6.458,227.976,0.000,0.600,0.200,0.200,1.000,LightsWired,6.449,103.191,6.449,103.2,6.449,103.191,6.449,103.191,6.449,103.191
 Lights Internal Gains Nominal, F8 NE APARTMENT_LIGHTS_HARDWIRED,LTG_APT_SCH,F8 NE APARTMENT,88.25,2.5,569.941,6.458,227.976,0.000,0.600,0.200,0.200,1.000,LightsWired,6.449,103.191,6.449,103.2,6.449,103.191,6.449,103.191,6.449,103.191
 Lights Internal Gains Nominal, F8 N1 APARTMENT_LIGHTS_HARDWIRED,LTG_APT_SCH,F8 N1 APARTMENT,88.25,2.5,569.941,6.458,227.976,0.000,0.600,0.200,0.200,1.000,LightsWired,6.449,103.191,6.449,103.2,6.449,103.191,6.449,103.191,6.449,103.191
 Lights Internal Gains Nominal, F8 N2 APARTMENT_LIGHTS_HARDWIRED,LTG_APT_SCH,F8 N2 APARTMENT,88.25,2.5,569.941,6.458,227.976,0.000,0.600,0.200,0.200,1.000,LightsWired,6.449,103.191,6.449,103.2,6.449,103.191,6.449,103.191,6.449,103.191
 Lights Internal Gains Nominal, F8 S1 APARTMENT_LIGHTS_HARDWIRED,LTG_APT_SCH,F8 S1 APARTMENT,88.25,2.5,569.941,6.458,227.976,0.000,0.600,0.200,0.200,1.000,LightsWired,6.449,103.191,6.449,103.2,6.449,103.191,6.449,103.191,6.449,103.191
 Lights Internal Gains Nominal, F8 S2 APARTMENT_LIGHTS_HARDWIRED,LTG_APT_SCH,F8 S2 APARTMENT,88.25,2.5,569.941,6.458,227.976,0.000,0.600,0.200,0.200,1.000,LightsWired,6.449,103.191,6.449,103.2,6.449,103.191,6.449,103.191,6.449,103.191
 Lights Internal Gains Nominal, F8 CORRIDOR_LIGHTS_HARDWIRED,LTG_COR_SCH,F8 CORRIDOR,77.66,0.0,411.267,5.296,N/A,0.000,0.600,0.200,0.200,1.000,LightsWired,237.250,237.250,237.250,237.2,237.250,237.250,237.250,237.250,237.250,237.250
 Lights Internal Gains Nominal, F9 SW APARTMENT_LIGHTS_HARDWIRED,LTG_APT_SCH,F9 SW APARTMENT,88.25,2.5,569.941,6.458,227.976,0.000,0.600,0.200,0.200,1.000,LightsWired,6.449,103.191,6.449,103.2,6.449,103.191,6.449,103.191,6.449,103.191
 Lights Internal Gains Nominal, F9 NW APARTMENT_LIGHTS_HARDWIRED,LTG_APT_SCH,F9 NW APARTMENT,88.25,2.5,569.941,6.458,227.976,0.000,0.600,0.200,0.200,1.000,LightsWired,6.449,103.191,6.449,103.2,6.449,103.191,6.449,103.191,6.449,103.191
 Lights Internal Gains Nominal, F9 SE APARTMENT_LIGHTS_HARDWIRED,LTG_APT_SCH,F9 SE APARTMENT,88.25,2.5,569.941,6.458,227.976,0.000,0.600,0.200,0.200,1.000,LightsWired,6.449,103.191,6.449,103.2,6.449,103.191,6.449,103.191,6.449,103.191
 Lights Internal Gains Nominal, F9 NE APARTMENT_LIGHTS_HARDWIRED,LTG_APT_SCH,F9 NE APARTMENT,88.25,2.5,569.941,6.458,227.976,0.000,0.600,0.200,0.200,1.000,LightsWired,6.449,103.191,6.449,103.2,6.449,103.191,6.449,103.191,6.449,103.191
 Lights Internal Gains Nominal, F9 N1 APARTMENT_LIGHTS_HARDWIRED,LTG_APT_SCH,F9 N1 APARTMENT,88.25,2.5,569.941,6.458,227.976,0.000,0.600,0.200,0.200,1.000,LightsWired,6.449,103.191,6.449,103.2,6.449,103.191,6.449,103.191,6.449,103.191
 Lights Internal Gains Nominal, F9 N2 APARTMENT_LIGHTS_HARDWIRED,LTG_APT_SCH,F9 N2 APARTMENT,88.25,2.5,569.941,6.458,227.976,0.000,0.600,0.200,0.200,1.000,LightsWired,6.449,103.191,6.449,103.2,6.449,103.191,6.449,103.191,6.449,103.191
 Lights Internal Gains Nominal, F9 S1 APARTMENT_LIGHTS_HARDWIRED,LTG_APT_SCH,F9 S1 APARTMENT,88.25,2.5,569.941,6.458,227.976,0.000,0.600,0.200,0.200,1.000,LightsWired,6.449,103.191,6.449,103.2,6.449,103.191,6.449,103.191,6.449,103.191
 Lights Internal Gains Nominal, F9 S2 APARTMENT_LIGHTS_HARDWIRED,LTG_APT_SCH,F9 S2 APARTMENT,88.25,2.5,569.941,6.458,227.976,0.000,0.600,0.200,0.200,1.000,LightsWired,6.449,103.191,6.449,103.2,6.449,103.191,6.449,103.191,6.449,103.191
 Lights Internal Gains Nominal, F9 CORRIDOR_LIGHTS_HARDWIRED,LTG_COR_SCH,F9 CORRIDOR,77.66,0.0,411.267,5.296,N/A,0.000,0.600,0.200,0.200,1.000,LightsWired,237.250,237.250,237.250,237.2,237.250,237.250,237.250,237.250,237.250,237.250
 Lights Internal Gains Nominal, T SW APARTMENT_LIGHTS_HARDWIRED,LTG_APT_SCH,T SW APARTMENT,88.25,2.5,569.941,6.458,227.976,0.000,0.600,0.200,0.200,1.000,LightsWired,6.449,103.191,6.449,103.2,6.449,103.191,6.449,103.191,6.449,103.191
 Lights Internal Gains Nominal, T NW APARTMENT_LIGHTS_HARDWIRED,LTG_APT_SCH,T NW APARTMENT,88.25,2.5,569.941,6.458,227.976,0.000,0.600,0.200,0.200,1.000,LightsWired,6.449,103.191,6.449,103.2,6.449,103.191,6.449,103.191,6.449,103.191
 Lights Internal Gains Nominal, T SE APARTMENT_LIGHTS_HARDWIRED,LTG_APT_SCH,T SE APARTMENT,88.25,2.5,569.941,6.458,227.976,0.000,0.600,0.200,0.200,1.000,LightsWired,6.449,103.191,6.449,103.2,6.449,103.191,6.449,103.191,6.449,103.191
 Lights Internal Gains Nominal, T NE APARTMENT_LIGHTS_HARDWIRED,LTG_APT_SCH,T NE APARTMENT,88.25,2.5,569.941,6.458,227.976,0.000,0.600,0.200,0.200,1.000,LightsWired,6.449,103.191,6.449,103.2,6.449,103.191,6.449,103.191,6.449,103.191
 Lights Internal Gains Nominal, T N1 APARTMENT_LIGHTS_HARDWIRED,LTG_APT_SCH,T N1 APARTMENT,88.25,2.5,569.941,6.458,227.976,0.000,0.600,0.200,0.200,1.000,LightsWired,6.449,103.191,6.449,103.2,6.449,103.191,6.449,103.191,6.449,103.191
 Lights Internal Gains Nominal, T N2 APARTMENT_LIGHTS_HARDWIRED,LTG_APT_SCH,T N2 APARTMENT,88.25,2.5,569.941,6.458,227.976,0.000,0.600,0.200,0.200,1.000,LightsWired,6.449,103.191,6.449,103.2,6.449,103.191,6.449,103.191,6.449,103.191
 Lights Internal Gains Nominal, T S1 APARTMENT_LIGHTS_HARDWIRED,LTG_APT_SCH,T S1 APARTMENT,88.25,2.5,569.941,6.458,227.976,0.000,0.600,0.200,0.200,1.000,LightsWired,6.449,103.191,6.449,103.2,6.449,103.191,6.449,103.191,6.449,103.191
 Lights Internal Gains Nominal, T S2 APARTMENT_LIGHTS_HARDWIRED,LTG_APT_SCH,T S2 APARTMENT,88.25,2.5,569.941,6.458,227.976,0.000,0.600,0.200,0.200,1.000,LightsWired,6.449,103.191,6.449,103.2,6.449,103.191,6.449,103.191,6.449,103.191
 Lights Internal Gains Nominal, T CORRIDOR_LIGHTS_HARDWIRED,LTG_COR_SCH,T CORRIDOR,77.66,0.0,411.267,5.296,N/A,0.000,0.600,0.200,0.200,1.000,LightsWired,237.250,237.250,237.250,237.2,237.250,237.250,237.250,237.250,237.250,237.250
 Lights Internal Gains Nominal, G SW APARTMENT_LIGHTS_PLUGIN,LTG_APT_SCH,G SW APARTMENT,88.25,2.5,256.473,2.906,102.589,0.000,0.600,0.200,0.200,1.000,LightsPlugIn,2.902,46.436,2.902,46.4,2.902,46.436,2.902,46.436,2.902,46.436
 Lights Internal Gains Nominal, G NW APARTMENT_LIGHTS_PLUGIN,LTG_APT_SCH,G NW APARTMENT,88.25,2.5,256.473,2.906,102.589,0.000,0.600,0.200,0.200,1.000,LightsPlugIn,2.902,46.436,2.902,46.4,2.902,46.436,2.902,46.436,2.902,46.436
 Lights Internal Gains Nominal, G NE APARTMENT_LIGHTS_PLUGIN,LTG_APT_SCH,G NE APARTMENT,88.25,2.5,256.473,2.906,102.589,0.000,0.600,0.200,0.200,1.000,LightsPlugIn,2.902,46.436,2.902,46.4,2.902,46.436,2.902,46.436,2.902,46.436
 Lights Internal Gains Nominal, G N1 APARTMENT_LIGHTS_PLUGIN,LTG_APT_SCH,G N1 APARTMENT,88.25,2.5,256.473,2.906,102.589,0.000,0.600,0.200,0.200,1.000,LightsPlugIn,2.902,46.436,2.902,46.4,2.902,46.436,2.902,46.436,2.902,46.436
 Lights Internal Gains Nominal, G N2 APARTMENT_LIGHTS_PLUGIN,LTG_APT_SCH,G N2 APARTMENT,88.25,2.5,256.473,2.906,102.589,0.000,0.600,0.200,0.200,1.000,LightsPlugIn,2.902,46.436,2.902,46.4,2.902,46.436,2.902,46.436,2.902,46.436
 Lights Internal Gains Nominal, G S1 APARTMENT_LIGHTS_PLUGIN,LTG_APT_SCH,G S1 APARTMENT,88.25,2.5,256.473,2.906,102.589,0.000,0.600,0.200,0.200,1.000,LightsPlugIn,2.902,46.436,2.902,46.4,2.902,46.436,2.902,46.436,2.902,46.436
 Lights Internal Gains Nominal, G S2 APARTMENT_LIGHTS_PLUGIN,LTG_APT_SCH,G S2 APARTMENT,88.25,2.5,256.473,2.906,102.589,0.000,0.600,0.200,0.200,1.000,LightsPlugIn,2.902,46.436,2.902,46.4,2.902,46.436,2.902,46.436,2.902,46.436
 Lights Internal Gains Nominal, F2 SW APARTMENT_LIGHTS_PLUGIN,LTG_APT_SCH,F2 SW APARTMENT,88.25,2.5,256.473,2.906,102.589,0.000,0.600,0.200,0.200,1.000,LightsPlugIn,2.902,46.436,2.902,46.4,2.902,46.436,2.902,46.436,2.902,46.436
 Lights Internal Gains Nominal, F2 NW APARTMENT_LIGHTS_PLUGIN,LTG_APT_SCH,F2 NW APARTMENT,88.25,2.5,256.473,2.906,102.589,0.000,0.600,0.200,0.200,1.000,LightsPlugIn,2.902,46.436,2.902,46.4,2.902,46.436,2.902,46.436,2.902,46.436
 Lights Internal Gains Nominal, F2 SE APARTMENT_LIGHTS_PLUGIN,LTG_APT_SCH,F2 SE APARTMENT,88.25,2.5,256.473,2.906,102.589,0.000,0.600,0.200,0.200,1.000,LightsPlugIn,2.902,46.436,2.902,46.4,2.902,46.436,2.902,46.436,2.902,46.436
 Lights Internal Gains Nominal, F2 NE APARTMENT_LIGHTS_PLUGIN,LTG_APT_SCH,F2 NE APARTMENT,88.25,2.5,256.473,2.906,102.589,0.000,0.600,0.200,0.200,1.000,LightsPlugIn,2.902,46.436,2.902,46.4,2.902,46.436,2.902,46.436,2.902,46.436
 Lights Internal Gains Nominal, F2 N1 APARTMENT_LIGHTS_PLUGIN,LTG_APT_SCH,F2 N1 APARTMENT,88.25,2.5,256.473,2.906,102.589,0.000,0.600,0.200,0.200,1.000,LightsPlugIn,2.902,46.436,2.902,46.4,2.902,46.436,2.902,46.436,2.902,46.436
 Lights Internal Gains Nominal, F2 N2 APARTMENT_LIGHTS_PLUGIN,LTG_APT_SCH,F2 N2 APARTMENT,88.25,2.5,256.473,2.906,102.589,0.000,0.600,0.200,0.200,1.000,LightsPlugIn,2.902,46.436,2.902,46.4,2.902,46.436,2.902,46.436,2.902,46.436
 Lights Internal Gains Nominal, F2 S1 APARTMENT_LIGHTS_PLUGIN,LTG_APT_SCH,F2 S1 APARTMENT,88.25,2.5,256.473,2.906,102.589,0.000,0.600,0.200,0.200,1.000,LightsPlugIn,2.902,46.436,2.902,46.4,2.902,46.436,2.902,46.436,2.902,46.436
 Lights Internal Gains Nominal, F2 S2 APARTMENT_LIGHTS_PLUGIN,LTG_APT_SCH,F2 S2 APARTMENT,88.25,2.5,256.473,2.906,102.589,0.000,0.600,0.200,0.200,1.000,LightsPlugIn,2.902,46.436,2.902,46.4,2.902,46.436,2.902,46.436,2.902,46.436
 Lights Internal Gains Nominal, F3 SW APARTMENT_LIGHTS_PLUGIN,LTG_APT_SCH,F3 SW APARTMENT,88.25,2.5,256.473,2.906,102.589,0.000,0.600,0.200,0.200,1.000,LightsPlugIn,2.902,46.436,2.902,46.4,2.902,46.436,2.902,46.436,2.902,46.436
 Lights Internal Gains Nominal, F3 NW APARTMENT_LIGHTS_PLUGIN,LTG_APT_SCH,F3 NW APARTMENT,88.25,2.5,256.473,2.906,102.589,0.000,0.600,0.200,0.200,1.000,LightsPlugIn,2.902,46.436,2.902,46.4,2.902,46.436,2.902,46.436,2.902,46.436
 Lights Internal Gains Nominal, F3 SE APARTMENT_LIGHTS_PLUGIN,LTG_APT_SCH,F3 SE APARTMENT,88.25,2.5,256.473,2.906,102.589,0.000,0.600,0.200,0.200,1.000,LightsPlugIn,2.902,46.436,2.902,46.4,2.902,46.436,2.902,46.436,2.902,46.436
 Lights Internal Gains Nominal, F3 NE APARTMENT_LIGHTS_PLUGIN,LTG_APT_SCH,F3 NE APARTMENT,88.25,2.5,256.473,2.906,102.589,0.000,0.600,0.200,0.200,1.000,LightsPlugIn,2.902,46.436,2.902,46.4,2.902,46.436,2.902,46.436,2.902,46.436
 Lights Internal Gains Nominal, F3 N1 APARTMENT_LIGHTS_PLUGIN,LTG_APT_SCH,F3 N1 APARTMENT,88.25,2.5,256.473,2.906,102.589,0.000,0.600,0.200,0.200,1.000,LightsPlugIn,2.902,46.436,2.902,46.4,2.902,46.436,2.902,46.436,2.902,46.436
 Lights Internal Gains Nominal, F3 N2 APARTMENT_LIGHTS_PLUGIN,LTG_APT_SCH,F3 N2 APARTMENT,88.25,2.5,256.473,2.906,102.589,0.000,0.600,0.200,0.200,1.000,LightsPlugIn,2.902,46.436,2.902,46.4,2.902,46.436,2.902,46.436,2.902,46.436
 Lights Internal Gains Nominal, F3 S1 APARTMENT_LIGHTS_PLUGIN,LTG_APT_SCH,F3 S1 APARTMENT,88.25,2.5,256.473,2.906,102.589,0.000,0.600,0.200,0.200,1.000,LightsPlugIn,2.902,46.436,2.902,46.4,2.902,46.436,2.902,46.436,2.902,46.436
[...]
 Component Sizing Information, AirLoopHVAC:UnitaryHeatPump:WaterToAir, AIRLOOP T S2 DXAC HEAT PUMP, Supply Air Flow Rate When No Cooling or Heating is Needed [m3/s], 0.17601
 Component Sizing Information, AirLoopHVAC:UnitaryHeatPump:WaterToAir, AIRLOOP T S2 DXAC HEAT PUMP, Nominal Heating Capacity [W], 2833.25696
 Component Sizing Information, AirLoopHVAC:UnitaryHeatPump:WaterToAir, AIRLOOP T S2 DXAC HEAT PUMP, Nominal Cooling Capacity [W], 2833.25696
 Component Sizing Information, AirLoopHVAC:UnitaryHeatPump:WaterToAir, AIRLOOP T S2 DXAC HEAT PUMP, Supplemental Heating Coil Nominal Capacity [W], 3177.10588
 Component Sizing Information, AirLoopHVAC:UnitaryHeatPump:WaterToAir, AIRLOOP T S2 DXAC HEAT PUMP, Fraction of Supply Air Flow That Goes Through the Controlling Zone, 1.00000
 Component Sizing Information, Fan:OnOff, AIRLOOP T S2 SUPPLY FAN, Design Size Maximum Flow Rate [m3/s], 0.17601
 Component Sizing Information, Fan:OnOff, AIRLOOP T S2 SUPPLY FAN, Design Electric Power Consumption [W], 197.15349
 Component Sizing Information, Coil:Heating:Electric, HEAT PUMP DX SUPP HEATING COIL AIRLOOP T S2, Design Size Nominal Capacity [W], 3177.10588
Water Heater Information,WaterHeater:Mixed,SHWSYS1 WATER HEATER,2.2712,175842.6,0.000,0.0000
 Component Sizing Information, PlantLoop, SHWSYS1, Maximum Loop Flow Rate [m3/s], 2.89140E-004
 Component Sizing Information, PlantLoop, SHWSYS1, Plant Loop Volume [m3], 3.46968E-002
 Component Sizing Information, PlantLoop, SHWSYS1, Design Supply Temperature [C], 60.00000
 Component Sizing Information, PlantLoop, SHWSYS1, Design Return Temperature [C], 55.00000
 Component Sizing Information, PlantLoop, SHWSYS1, Sizing Option, NonCoincident
 Component Sizing Information, PlantLoop, SHWSYS1, Minimum Loop Flow Rate [m3/s], 0.00000
 Component Sizing Information, PlantLoop, SHWSYS1, Design Capacity [W], 6068.32837
 Component Sizing Information, Pump:ConstantSpeed, SHWSYS1 PUMP, Design Flow Rate [m3/s], 2.89140E-004
 Component Sizing Information, Pump:ConstantSpeed, SHWSYS1 PUMP, Design Power Consumption [W], 36.93455
 Component Sizing Information, WaterHeater:Mixed, SHWSYS1 WATER HEATER, Use Side Design Flow Rate [m3/s], 2.89140E-004
 Component Sizing Information, PlantLoop, SINGLE WATER PLANT LOOP, Maximum Loop Flow Rate [m3/s], 6.27479E-003
 Component Sizing Information, PlantLoop, SINGLE WATER PLANT LOOP, Plant Loop Volume [m3], 0.75298
 Component Sizing Information, PlantLoop, SINGLE WATER PLANT LOOP, Design Supply Temperature [C], 30.00000
 Component Sizing Information, PlantLoop, SINGLE WATER PLANT LOOP, Design Return Temperature [C], 19.00000
 Component Sizing Information, PlantLoop, SINGLE WATER PLANT LOOP, Sizing Option, NonCoincident
 Component Sizing Information, PlantLoop, SINGLE WATER PLANT LOOP, Minimum Loop Flow Rate [m3/s], 0.00000
 Component Sizing Information, PlantLoop, SINGLE WATER PLANT LOOP, Design Capacity [W], 289723.06908
 Component Sizing Information, Pump:ConstantSpeed, PLANT CIRC PUMP, Design Flow Rate [m3/s], 6.27479E-003
 Component Sizing Information, Pump:ConstantSpeed, PLANT CIRC PUMP, Design Power Consumption [W], 1584.54097
 Component Sizing Information, EvaporativeFluidCooler:TwoSpeed, CENTRAL TOWER, Design Water Flow Rate [m3/s], 6.27479E-003
 Component Sizing Information, EvaporativeFluidCooler:TwoSpeed, CENTRAL TOWER, Fan Power at High Fan Speed [W], 3029.09899
 Component Sizing Information, EvaporativeFluidCooler:TwoSpeed, CENTRAL TOWER, Air Flow Rate at High Fan Speed [m3/s], 8.19890
 Component Sizing Information, EvaporativeFluidCooler:TwoSpeed, CENTRAL TOWER, U-Factor Times Area Value at High Fan Speed [W/C], 9137.36498
 Component Sizing Information, EvaporativeFluidCooler:TwoSpeed, CENTRAL TOWER, Air Flow Rate at Low Fan Speed [m3/s], 4.09945
 Component Sizing Information, EvaporativeFluidCooler:TwoSpeed, CENTRAL TOWER, Fan Power at Low Fan Speed [W], 484.65584
 Component Sizing Information, EvaporativeFluidCooler:TwoSpeed, CENTRAL TOWER, U-Factor Times Area Value at Low Fan Speed [W/C], 5482.41899
 Component Sizing Information, Boiler:HotWater, CENTRAL BOILER, Design Size Nominal Capacity [W], 284007.30916
 Component Sizing Information, Boiler:HotWater, CENTRAL BOILER, User-Specified Nominal Capacity [W], 197380.04000
 Component Sizing Information, Boiler:HotWater, CENTRAL BOILER, Design Size Design Water Flow Rate [m3/s], 6.27479E-003
! <Environment>,Environment Name,Environment Type, Start Date, End Date, Start DayOfWeek, Duration {#days}, Source:Start DayOfWeek,  Use Daylight Saving, Use Holidays, Apply Weekend Holiday Rule,  Use Rain Values, Use Snow Values, Sky Temperature Model
! <Environment:Special Days>, Special Day Name, Special Day Type, Source, Start Date, Duration {#days}
! <Environment:Daylight Saving>, Daylight Saving Indicator, Source, Start Date, End Date
! <Environment:WarmupDays>, NumberofWarmupDays
Environment,RUNPERIOD 1,WeatherFileRunPeriod,01/01/2017,12/31/2017,Sunday,365,Use RunPeriod Specified Day,Yes,Yes,Yes,Yes,Yes,Clark and Allen
Environment:Daylight Saving,Yes,InputFile,03/12,11/05
Environment:Special Days,NEW YEARS DAY,Holiday,InputFile,01/02,  1
Environment:Special Days,VETERANS DAY,Holiday,InputFile,11/13,  1
Environment:Special Days,CHRISTMAS,Holiday,InputFile,12/25,  1
Environment:Special Days,INDEPENDENCE DAY,Holiday,InputFile,07/04,  1
Environment:Special Days,MLK DAY,Holiday,InputFile,01/16,  1
Environment:Special Days,PRESIDENTS DAY,Holiday,InputFile,02/20,  1
Environment:Special Days,MEMORIAL DAY,Holiday,InputFile,05/29,  1
Environment:Special Days,LABOR DAY,Holiday,InputFile,09/04,  1
Environment:Special Days,COLUMBUS DAY,Holiday,InputFile,10/09,  1
Environment:Special Days,THANKSGIVING,Holiday,InputFile,11/23,  1
Environment:WarmupDays, 14
! <Tabular Report>,Style,Unit Conversion, Format Reals
Tabular Report,COMMAANDHTML,None,Yes
! <Warmup Convergence Information>,Zone Name,Environment Type/Name,Average Warmup Temperature Difference {deltaC},Std Dev Warmup Temperature Difference {deltaC},Max Temperature Pass/Fail Convergence,Min Temperature Pass/Fail Convergence,Average Warmup Load Difference {W},Std Dev Warmup Load Difference {W},Heating Load Pass/Fail Convergence,Cooling Load Pass/Fail Convergence
 Warmup Convergence Information,G SW APARTMENT,RunPeriod: RUNPERIOD 1,0.1363216505,0.3311302043,Pass,Pass,0.8059003353,3.2035854670,Pass,Pass
 Warmup Convergence Information,G NW APARTMENT,RunPeriod: RUNPERIOD 1,0.1119727693,0.1747791122,Pass,Pass,8.0992975142E-002,0.1572755803,Pass,Pass
 Warmup Convergence Information,OFFICE,RunPeriod: RUNPERIOD 1,8.4481793696E-002,5.8393553993E-002,Pass,Pass,4.6287313238E-002,4.9089360369E-002,Pass,Pass
 Warmup Convergence Information,G NE APARTMENT,RunPeriod: RUNPERIOD 1,0.1103919630,0.1913267962,Pass,Pass,7.9377259164E-002,0.1538240943,Pass,Pass
 Warmup Convergence Information,G N1 APARTMENT,RunPeriod: RUNPERIOD 1,0.1030600540,0.1876144813,Pass,Pass,8.7092422732E-002,0.1574098439,Pass,Pass
 Warmup Convergence Information,G N2 APARTMENT,RunPeriod: RUNPERIOD 1,0.1025443616,0.1888888726,Pass,Pass,8.9412623551E-002,0.1605170728,Pass,Pass
 Warmup Convergence Information,G S1 APARTMENT,RunPeriod: RUNPERIOD 1,0.1291959196,0.3068403809,Pass,Pass,0.7317217415,3.1159075527,Pass,Pass
 Warmup Convergence Information,G S2 APARTMENT,RunPeriod: RUNPERIOD 1,0.1300946040,0.3076246578,Pass,Pass,0.7292544546,3.1488450825,Pass,Pass
 Warmup Convergence Information,G CORRIDOR,RunPeriod: RUNPERIOD 1,0.3227797562,0.8276109249,Pass,Pass,0.0000000000,0.0000000000,Pass,Pass
 Warmup Convergence Information,F2 SW APARTMENT,RunPeriod: RUNPERIOD 1,0.1850429292,0.3891473458,Pass,Pass,0.3782923544,1.5111430748,Pass,Pass
 Warmup Convergence Information,F2 NW APARTMENT,RunPeriod: RUNPERIOD 1,0.1089916268,0.1580113206,Pass,Pass,4.6296607169E-002,5.8364805036E-002,Pass,Pass
 Warmup Convergence Information,F2 SE APARTMENT,RunPeriod: RUNPERIOD 1,0.1990884032,0.4698703997,Pass,Pass,0.8873096732,3.5426329707,Pass,Pass
 Warmup Convergence Information,F2 NE APARTMENT,RunPeriod: RUNPERIOD 1,8.6162651322E-002,0.1649558690,Pass,Pass,0.1774338486,0.7273152591,Pass,Pass
 Warmup Convergence Information,F2 N1 APARTMENT,RunPeriod: RUNPERIOD 1,8.4934950765E-002,0.1803742575,Pass,Pass,0.1320208369,0.3842314561,Pass,Pass
 Warmup Convergence Information,F2 N2 APARTMENT,RunPeriod: RUNPERIOD 1,8.3390831203E-002,0.1799356886,Pass,Pass,0.1472845204,0.4724623733,Pass,Pass
 Warmup Convergence Information,F2 S1 APARTMENT,RunPeriod: RUNPERIOD 1,0.1940967055,0.3344671279,Pass,Pass,0.6262711911,2.8205048249,Pass,Pass
 Warmup Convergence Information,F2 S2 APARTMENT,RunPeriod: RUNPERIOD 1,0.1777223630,0.3885284278,Pass,Pass,0.8457000233,3.9408686807,Pass,Pass
 Warmup Convergence Information,F2 CORRIDOR,RunPeriod: RUNPERIOD 1,2.2329583859E-002,1.3661653153E-002,Pass,Pass,0.0000000000,0.0000000000,Pass,Pass
 Warmup Convergence Information,F3 SW APARTMENT,RunPeriod: RUNPERIOD 1,0.1863460036,0.3929996869,Pass,Pass,0.3804418070,1.5282434933,Pass,Pass
 Warmup Convergence Information,F3 NW APARTMENT,RunPeriod: RUNPERIOD 1,0.1075721334,0.1584286725,Pass,Pass,4.8301075085E-002,6.0468391362E-002,Pass,Pass
 Warmup Convergence Information,F3 SE APARTMENT,RunPeriod: RUNPERIOD 1,0.2013262002,0.4097810405,Pass,Pass,0.8240871360,3.5421204155,Pass,Pass
 Warmup Convergence Information,F3 NE APARTMENT,RunPeriod: RUNPERIOD 1,8.1718021680E-002,0.1597127377,Pass,Pass,0.2081157279,0.9144426920,Pass,Pass
 Warmup Convergence Information,F3 N1 APARTMENT,RunPeriod: RUNPERIOD 1,8.2780924121E-002,0.1855153955,Pass,Pass,0.1646880109,0.5721192953,Pass,Pass
 Warmup Convergence Information,F3 N2 APARTMENT,RunPeriod: RUNPERIOD 1,7.9656353528E-002,0.1817973167,Pass,Pass,0.1748312045,0.6253120781,Pass,Pass
 Warmup Convergence Information,F3 S1 APARTMENT,RunPeriod: RUNPERIOD 1,0.1802934073,0.3200257924,Pass,Pass,0.6461424220,2.9357741473,Pass,Pass
 Warmup Convergence Information,F3 S2 APARTMENT,RunPeriod: RUNPERIOD 1,0.1801172035,0.3176556622,Pass,Pass,0.6418820767,2.9092429994,Pass,Pass
 Warmup Convergence Information,F3 CORRIDOR,RunPeriod: RUNPERIOD 1,2.3837786239E-002,1.4219829539E-002,Pass,Pass,0.0000000000,0.0000000000,Pass,Pass
 Warmup Convergence Information,F4 SW APARTMENT,RunPeriod: RUNPERIOD 1,0.1858844582,0.3926348385,Pass,Pass,0.3809521005,1.5268849801,Pass,Pass
 Warmup Convergence Information,F4 NW APARTMENT,RunPeriod: RUNPERIOD 1,0.1063440336,0.1588496045,Pass,Pass,5.1419884835E-002,7.2176505169E-002,Pass,Pass
 Warmup Convergence Information,F4 SE APARTMENT,RunPeriod: RUNPERIOD 1,0.2004866343,0.4092991156,Pass,Pass,0.8247066312,3.5489283309,Pass,Pass
 Warmup Convergence Information,F4 NE APARTMENT,RunPeriod: RUNPERIOD 1,8.1077040501E-002,0.1594233597,Pass,Pass,0.2141986551,0.9527141876,Pass,Pass
 Warmup Convergence Information,F4 N1 APARTMENT,RunPeriod: RUNPERIOD 1,8.0118421567E-002,0.1822229554,Pass,Pass,0.1723129327,0.6059440689,Pass,Pass
 Warmup Convergence Information,F4 N2 APARTMENT,RunPeriod: RUNPERIOD 1,7.8119438779E-002,0.1787366904,Pass,Pass,0.1795330475,0.6567705773,Pass,Pass
 Warmup Convergence Information,F4 S1 APARTMENT,RunPeriod: RUNPERIOD 1,0.1802781534,0.3203715345,Pass,Pass,0.6484969646,2.9497874140,Pass,Pass
 Warmup Convergence Information,F4 S2 APARTMENT,RunPeriod: RUNPERIOD 1,0.1835884754,0.3284134585,Pass,Pass,0.6247428763,2.7992115799,Pass,Pass
 Warmup Convergence Information,F4 CORRIDOR,RunPeriod: RUNPERIOD 1,2.3674049976E-002,1.3973045103E-002,Pass,Pass,0.0000000000,0.0000000000,Pass,Pass
 Warmup Convergence Information,M SW APARTMENT,RunPeriod: RUNPERIOD 1,0.1851923276,0.3913072944,Pass,Pass,0.3809656280,1.5213213014,Pass,Pass
 Warmup Convergence Information,M NW APARTMENT,RunPeriod: RUNPERIOD 1,0.1061408257,0.1590555948,Pass,Pass,5.1779513261E-002,7.3625606928E-002,Pass,Pass
 Warmup Convergence Information,M SE APARTMENT,RunPeriod: RUNPERIOD 1,0.1992674754,0.4083545249,Pass,Pass,0.8233642480,3.5492461605,Pass,Pass
 Warmup Convergence Information,M NE APARTMENT,RunPeriod: RUNPERIOD 1,8.1362182779E-002,0.1598434972,Pass,Pass,0.2160337607,0.9563345117,Pass,Pass
 Warmup Convergence Information,M N1 APARTMENT,RunPeriod: RUNPERIOD 1,8.0034969930E-002,0.1822922255,Pass,Pass,0.1742957508,0.6115436122,Pass,Pass
 Warmup Convergence Information,M N2 APARTMENT,RunPeriod: RUNPERIOD 1,7.7988807024E-002,0.1787476645,Pass,Pass,0.1800919297,0.6628905297,Pass,Pass
 Warmup Convergence Information,M S1 APARTMENT,RunPeriod: RUNPERIOD 1,0.1865369497,0.3277229473,Pass,Pass,0.6493858291,2.8692254451,Pass,Pass
 Warmup Convergence Information,M S2 APARTMENT,RunPeriod: RUNPERIOD 1,0.1798829728,0.3181918115,Pass,Pass,0.6457124681,2.9327729736,Pass,Pass
 Warmup Convergence Information,M CORRIDOR,RunPeriod: RUNPERIOD 1,2.3466138407E-002,1.3865433814E-002,Pass,Pass,0.0000000000,0.0000000000,Pass,Pass
 Warmup Convergence Information,F6 SW APARTMENT,RunPeriod: RUNPERIOD 1,0.1845172637,0.3898266008,Pass,Pass,0.3808046915,1.5142905059,Pass,Pass
 Warmup Convergence Information,F6 NW APARTMENT,RunPeriod: RUNPERIOD 1,0.1064029399,0.1588653097,Pass,Pass,5.0954327004E-002,6.9436040748E-002,Pass,Pass
 Warmup Convergence Information,F6 SE APARTMENT,RunPeriod: RUNPERIOD 1,0.1856554591,0.3800677262,Pass,Pass,0.8968601584,4.0853203936,Pass,Pass
 Warmup Convergence Information,F6 NE APARTMENT,RunPeriod: RUNPERIOD 1,8.1927531079E-002,0.1603667324,Pass,Pass,0.2156906032,0.9496394366,Pass,Pass
 Warmup Convergence Information,F6 N1 APARTMENT,RunPeriod: RUNPERIOD 1,8.0269401313E-002,0.1825316551,Pass,Pass,0.1728306366,0.6044460431,Pass,Pass
 Warmup Convergence Information,F6 N2 APARTMENT,RunPeriod: RUNPERIOD 1,7.8360503233E-002,0.1793967574,Pass,Pass,0.1804105210,0.6586632623,Pass,Pass
 Warmup Convergence Information,F6 S1 APARTMENT,RunPeriod: RUNPERIOD 1,0.1855950262,0.3275032442,Pass,Pass,0.6527698792,2.8888490434,Pass,Pass
 Warmup Convergence Information,F6 S2 APARTMENT,RunPeriod: RUNPERIOD 1,0.1790831504,0.3180521616,Pass,Pass,0.6489442395,2.9521068611,Pass,Pass
 Warmup Convergence Information,F6 CORRIDOR,RunPeriod: RUNPERIOD 1,2.3350188243E-002,1.3827337102E-002,Pass,Pass,0.0000000000,0.0000000000,Pass,Pass
 Warmup Convergence Information,F7 SW APARTMENT,RunPeriod: RUNPERIOD 1,0.1835939192,0.3877005191,Pass,Pass,0.3806411113,1.5046588519,Pass,Pass
 Warmup Convergence Information,F7 NW APARTMENT,RunPeriod: RUNPERIOD 1,0.1069586981,0.1580696681,Pass,Pass,4.9121301457E-002,6.2159312260E-002,Pass,Pass
 Warmup Convergence Information,F7 SE APARTMENT,RunPeriod: RUNPERIOD 1,0.1828402618,0.4366809820,Pass,Pass,0.9670398549,4.0682577406,Pass,Pass
 Warmup Convergence Information,F7 NE APARTMENT,RunPeriod: RUNPERIOD 1,8.2677453382E-002,0.1612355240,Pass,Pass,0.2163039635,0.9404812145,Pass,Pass
 Warmup Convergence Information,F7 N1 APARTMENT,RunPeriod: RUNPERIOD 1,8.1428163780E-002,0.1830508687,Pass,Pass,0.1700098970,0.5851192243,Pass,Pass
 Warmup Convergence Information,F7 N2 APARTMENT,RunPeriod: RUNPERIOD 1,7.9058151318E-002,0.1806995405,Pass,Pass,0.1802329348,0.6459590593,Pass,Pass
 Warmup Convergence Information,F7 S1 APARTMENT,RunPeriod: RUNPERIOD 1,0.1943166529,0.3374327547,Pass,Pass,0.6336555597,2.8765515150,Pass,Pass
 Warmup Convergence Information,F7 S2 APARTMENT,RunPeriod: RUNPERIOD 1,0.1845003998,0.3256233661,Pass,Pass,0.6529649919,2.8835061777,Pass,Pass
 Warmup Convergence Information,F7 CORRIDOR,RunPeriod: RUNPERIOD 1,2.3113547383E-002,1.3737942607E-002,Pass,Pass,0.0000000000,0.0000000000,Pass,Pass
 Warmup Convergence Information,F8 SW APARTMENT,RunPeriod: RUNPERIOD 1,0.1814684721,0.3826574043,Pass,Pass,0.3785167451,1.4751954962,Pass,Pass
 Warmup Convergence Information,F8 NW APARTMENT,RunPeriod: RUNPERIOD 1,0.1075315301,0.1564958878,Pass,Pass,4.6033116369E-002,5.7226607158E-002,Pass,Pass
 Warmup Convergence Information,F8 SE APARTMENT,RunPeriod: RUNPERIOD 1,0.1794971216,0.4315845845,Pass,Pass,0.9692674559,4.0217380659,Pass,Pass
 Warmup Convergence Information,F8 NE APARTMENT,RunPeriod: RUNPERIOD 1,8.3954736161E-002,0.1625311412,Pass,Pass,0.2116918656,0.8988316877,Pass,Pass
 Warmup Convergence Information,F8 N1 APARTMENT,RunPeriod: RUNPERIOD 1,8.4322124247E-002,0.1877916778,Pass,Pass,0.1607661620,0.5348809605,Pass,Pass
 Warmup Convergence Information,F8 N2 APARTMENT,RunPeriod: RUNPERIOD 1,8.0102290619E-002,0.1807931473,Pass,Pass,0.1725731379,0.6043290766,Pass,Pass
 Warmup Convergence Information,F8 S1 APARTMENT,RunPeriod: RUNPERIOD 1,0.1738647716,0.3864097192,Pass,Pass,0.8471323890,3.9320121640,Pass,Pass
 Warmup Convergence Information,F8 S2 APARTMENT,RunPeriod: RUNPERIOD 1,0.1743495793,0.3858815701,Pass,Pass,0.8464932864,3.9333747536,Pass,Pass
 Warmup Convergence Information,F8 CORRIDOR,RunPeriod: RUNPERIOD 1,2.1871666280E-002,1.3255279241E-002,Pass,Pass,0.0000000000,0.0000000000,Pass,Pass
 Warmup Convergence Information,F9 SW APARTMENT,RunPeriod: RUNPERIOD 1,0.1832128747,0.3776616069,Pass,Pass,0.3734295663,1.4256701205,Pass,Pass
 Warmup Convergence Information,F9 NW APARTMENT,RunPeriod: RUNPERIOD 1,0.1074191062,0.1511301398,Pass,Pass,4.7788501004E-002,5.9154629687E-002,Pass,Pass
 Warmup Convergence Information,F9 SE APARTMENT,RunPeriod: RUNPERIOD 1,0.1720075754,0.4102230530,Pass,Pass,0.9563271158,3.9692440482,Pass,Pass
 Warmup Convergence Information,F9 NE APARTMENT,RunPeriod: RUNPERIOD 1,8.8463671304E-002,0.1669652604,Pass,Pass,0.1895070174,0.7322984080,Pass,Pass
 Warmup Convergence Information,F9 N1 APARTMENT,RunPeriod: RUNPERIOD 1,8.7382549524E-002,0.1851787411,Pass,Pass,0.1247830155,0.3517310378,Pass,Pass
 Warmup Convergence Information,F9 N2 APARTMENT,RunPeriod: RUNPERIOD 1,8.5849940314E-002,0.1856789251,Pass,Pass,0.1433896078,0.4344712183,Pass,Pass
 Warmup Convergence Information,F9 S1 APARTMENT,RunPeriod: RUNPERIOD 1,0.1712975698,0.3876181756,Pass,Pass,0.8549669940,3.9277903253,Pass,Pass
 Warmup Convergence Information,F9 S2 APARTMENT,RunPeriod: RUNPERIOD 1,0.1717491998,0.3878849318,Pass,Pass,0.8540248933,3.9281176412,Pass,Pass
 Warmup Convergence Information,F9 CORRIDOR,RunPeriod: RUNPERIOD 1,2.4294103668E-002,1.1964153114E-002,Pass,Pass,0.0000000000,0.0000000000,Pass,Pass
 Warmup Convergence Information,T SW APARTMENT,RunPeriod: RUNPERIOD 1,0.2650027304,0.4790290643,Pass,Pass,0.4128701415,1.5488640717,Pass,Pass
 Warmup Convergence Information,T NW APARTMENT,RunPeriod: RUNPERIOD 1,0.1815651299,0.1481053343,Pass,Pass,0.3862926082,1.1671906910,Pass,Pass
 Warmup Convergence Information,T SE APARTMENT,RunPeriod: RUNPERIOD 1,0.2444156871,0.4085302913,Pass,Pass,0.4146409518,1.5022633227,Pass,Pass
 Warmup Convergence Information,T NE APARTMENT,RunPeriod: RUNPERIOD 1,0.1250046444,0.1650179303,Pass,Pass,0.1672468398,0.8705543303,Pass,Pass
 Warmup Convergence Information,T N1 APARTMENT,RunPeriod: RUNPERIOD 1,0.1207557496,0.1874633367,Pass,Pass,9.5439913096E-002,0.2332028519,Pass,Pass
 Warmup Convergence Information,T N2 APARTMENT,RunPeriod: RUNPERIOD 1,0.1186892067,0.1887239068,Pass,Pass,0.1509361548,0.5035389986,Pass,Pass
 Warmup Convergence Information,T S1 APARTMENT,RunPeriod: RUNPERIOD 1,0.2549195429,0.4377722531,Pass,Pass,0.8344063457,3.4277034099,Pass,Pass
 Warmup Convergence Information,T S2 APARTMENT,RunPeriod: RUNPERIOD 1,0.2551158275,0.4384428740,Pass,Pass,0.8333890458,3.4170650401,Pass,Pass
 Warmup Convergence Information,T CORRIDOR,RunPeriod: RUNPERIOD 1,8.8887530237E-002,5.1367572292E-002,Pass,Pass,0.0000000000,0.0000000000,Pass,Pass
! <Program Control Information:Threads/Parallel Sims>, Threading Supported,Maximum Number of Threads, Env Set Threads (OMP_NUM_THREADS), EP Env Set Threads (EP_OMP_NUM_THREADS), IDF Set Threads, Number of Threads Used (Interior Radiant Exchange), Number Nominal Surfaces, Number Parallel Sims
Program Control Information:Threads/Parallel Sims, No,1, N/A, N/A, N/A, N/A, N/A, N/A
End of Data
